suggested molecule #1
 MOE2019            2D

 41 45  0  0  1  0  0  0  0  0999 V2000
    3.4992   -1.2833    0.0000 C   0  0  0  0  0  0  0  0  0  1  0  0
    4.9992   -1.2762    0.0000 C   0  0  0  0  0  0  0  0  0  2  0  0
    5.7430    0.0263    0.0000 C   0  0  0  0  0  0  0  0  0  3  0  0
    4.9869    1.3218    0.0000 C   0  0  0  0  0  0  0  0  0  4  0  0
    3.4870    1.3147    0.0000 C   0  0  0  0  0  0  0  0  0  5  0  0
    2.7431    0.0122    0.0000 C   0  0  0  0  0  0  0  0  0  6  0  0
    1.2431    0.0051    0.0000 C   0  0  0  0  0  0  0  0  0  7  0  0
    0.4870    1.3006    0.0000 C   0  0  0  0  0  0  0  0  0  8  0  0
    1.2309    2.6032    0.0000 C   0  0  0  0  0  0  0  0  0  9  0  0
    0.4748    3.8987    0.0000 O   0  0  0  0  0  0  0  0  0 10  0  0
    2.7309    2.6102    0.0000 O   0  0  0  0  0  0  0  0  0 11  0  0
    2.9041   -2.3253    0.0000 H   0  0  0  0  0  0  0  0  0  0  0  0
    7.2117   -0.2787    0.0000 O   0  0  0  0  0  0  0  0  0  0  0  0
    7.3755   -1.7697    0.0000 C   0  0  1  0  0  0  0  0  0  0  0  0
    6.0081   -2.3862    0.0000 C   0  0  0  0  0  0  0  0  0  0  0  0
    8.6781   -2.5136    0.0000 C   0  0  0  0  0  0  0  0  0  0  0  0
    7.9342   -3.8161    0.0000 C   0  0  0  0  0  0  0  0  0  0  0  0
    9.4220   -1.2110    0.0000 C   0  0  0  0  0  0  0  0  0  0  0  0
    9.9806   -3.2575    0.0000 O   0  0  0  0  0  0  0  0  0  0  0  0
    5.7308    2.6244    0.0000 O   0  0  0  0  0  0  0  0  0  0  0  0
    7.2308    2.6314    0.0000 C   0  0  1  0  0  0  0  0  0  0  0  0
    7.9747    3.9340    0.0000 C   0  0  1  0  0  0  0  0  0  0  0  0
    9.4747    3.9410    0.0000 C   0  0  2  0  0  0  0  0  0  0  0  0
   10.2308    2.6455    0.0000 C   0  0  1  0  0  0  0  0  0  0  0  0
    9.4869    1.3430    0.0000 C   0  0  2  0  0  0  0  0  0  0  0  0
    7.9869    1.3359    0.0000 O   0  0  0  0  0  0  0  0  0  0  0  0
   10.2430    0.0475    0.0000 C   0  0  0  0  0  0  0  0  0  0  0  0
   11.7430    0.0545    0.0000 O   0  0  0  0  0  0  0  0  0  0  0  0
   11.7308    2.6526    0.0000 O   0  0  0  0  0  0  0  0  0  0  0  0
   10.2186    5.2436    0.0000 O   0  0  0  0  0  0  0  0  0  0  0  0
    7.2186    5.2295    0.0000 O   0  0  0  0  0  0  0  0  0  0  0  0
   -1.7569   -0.0090    0.0000 C   0  0  0  0  0  0  0  0  0  0  0  0
   -1.0130    1.2936    0.0000 C   0  0  0  0  0  0  0  0  0  0  0  0
   -1.7691    2.5891    0.0000 C   0  0  0  0  0  0  0  0  0  0  0  0
   -3.2691    2.5820    0.0000 C   0  0  0  0  0  0  0  0  0  0  0  0
   -4.0130    1.2795    0.0000 C   0  0  0  0  0  0  0  0  0  0  0  0
   -3.2569   -0.0160    0.0000 C   0  0  0  0  0  0  0  0  0  0  0  0
   -4.0007   -1.3186    0.0000 O   0  0  0  0  0  0  0  0  0  0  0  0
   -5.5129    1.2724    0.0000 O   0  0  0  0  0  0  0  0  0  0  0  0
   -4.0252    3.8775    0.0000 O   0  0  0  0  0  0  0  0  0  0  0  0
    0.6480   -1.0369    0.0000 H   0  0  0  0  0  0  0  0  0  0  0  0
  1  2  2  0  0  0  0
  1  6  1  0  0  0  0
  2  3  1  0  0  0  0
  3  4  2  0  0  0  0
  4  5  1  0  0  0  0
  5  6  2  0  0  0  0
  5 11  1  0  0  0  0
  6  7  1  0  0  0  0
  7  8  2  0  0  0  0
  8  9  1  0  0  0  0
  9 10  2  0  0  0  0
  9 11  1  0  0  0  0
  1 12  1  0  0  0  0
 13 14  1  0  0  0  0
 14 15  1  0  0  0  0
 14 16  1  6  0  0  0
 16 17  1  0  0  0  0
 16 18  1  0  0  0  0
 16 19  1  0  0  0  0
  2 15  1  0  0  0  0
  3 13  1  0  0  0  0
 21 20  1  6  0  0  0
 21 22  1  0  0  0  0
 21 26  1  0  0  0  0
 22 23  1  0  0  0  0
 22 31  1  1  0  0  0
 23 24  1  0  0  0  0
 23 30  1  6  0  0  0
 24 25  1  0  0  0  0
 24 29  1  1  0  0  0
 25 26  1  0  0  0  0
 25 27  1  6  0  0  0
 27 28  1  0  0  0  0
  4 20  1  0  0  0  0
 32 33  1  0  0  0  0
 32 37  2  0  0  0  0
 33 34  2  0  0  0  0
 34 35  1  0  0  0  0
 35 36  2  0  0  0  0
 35 40  1  0  0  0  0
 36 37  1  0  0  0  0
 36 39  1  0  0  0  0
 37 38  1  0  0  0  0
  8 33  1  0  0  0  0
  7 41  1  0  0  0  0
M  END
> <score_Kier2>
0.516495

$$$$
suggested molecule #2
 MOE2019            2D

 33 36  0  0  1  0  0  0  0  0999 V2000
    3.4992   -1.2833    0.0000 C   0  0  0  0  0  0  0  0  0  1  0  0
    4.9992   -1.2762    0.0000 C   0  0  0  0  0  0  0  0  0  2  0  0
    5.7430    0.0263    0.0000 C   0  0  0  0  0  0  0  0  0  3  0  0
    4.9869    1.3218    0.0000 C   0  0  0  0  0  0  0  0  0  4  0  0
    3.4870    1.3147    0.0000 C   0  0  0  0  0  0  0  0  0  5  0  0
    2.7431    0.0122    0.0000 C   0  0  0  0  0  0  0  0  0  6  0  0
    1.2431    0.0051    0.0000 C   0  0  0  0  0  0  0  0  0  7  0  0
    0.4870    1.3006    0.0000 C   0  0  0  0  0  0  0  0  0  8  0  0
    1.2309    2.6032    0.0000 C   0  0  0  0  0  0  0  0  0  9  0  0
    0.4748    3.8987    0.0000 O   0  0  0  0  0  0  0  0  0 10  0  0
    2.7309    2.6102    0.0000 O   0  0  0  0  0  0  0  0  0 11  0  0
    2.9041   -2.3253    0.0000 H   0  0  0  0  0  0  0  0  0  0  0  0
    7.2117   -0.2787    0.0000 O   0  0  0  0  0  0  0  0  0  0  0  0
    7.3755   -1.7697    0.0000 C   0  0  1  0  0  0  0  0  0  0  0  0
    6.0081   -2.3862    0.0000 C   0  0  0  0  0  0  0  0  0  0  0  0
    8.6781   -2.5136    0.0000 C   0  0  0  0  0  0  0  0  0  0  0  0
    9.4220   -1.2110    0.0000 C   0  0  0  0  0  0  0  0  0  0  0  0
    9.9806   -3.2575    0.0000 C   0  0  0  0  0  0  0  0  0  0  0  0
    7.9342   -3.8161    0.0000 O   0  0  0  0  0  0  0  0  0  0  0  0
    5.7308    2.6244    0.0000 O   0  0  0  0  0  0  0  0  0  0  0  0
    4.9747    3.9198    0.0000 C   0  0  1  0  0  0  0  0  0  0  0  0
    5.7186    5.2224    0.0000 C   0  0  1  0  0  0  0  0  0  0  0  0
    4.9625    6.5179    0.0000 C   0  0  2  0  0  0  0  0  0  0  0  0
    3.4625    6.5108    0.0000 C   0  0  1  0  0  0  0  0  0  0  0  0
    2.7186    5.2083    0.0000 C   0  0  2  0  0  0  0  0  0  0  0  0
    3.4747    3.9128    0.0000 O   0  0  0  0  0  0  0  0  0  0  0  0
    1.2187    5.2012    0.0000 C   0  0  0  0  0  0  0  0  0  0  0  0
    0.4625    6.4967    0.0000 O   0  0  0  0  0  0  0  0  0  0  0  0
    2.7064    7.8063    0.0000 O   0  0  0  0  0  0  0  0  0  0  0  0
    5.7064    7.8204    0.0000 O   0  0  0  0  0  0  0  0  0  0  0  0
    7.2186    5.2295    0.0000 O   0  0  0  0  0  0  0  0  0  0  0  0
   -1.0130    1.2936    0.0000 O   0  0  0  0  0  0  0  0  0  0  0  0
    0.6480   -1.0369    0.0000 H   0  0  0  0  0  0  0  0  0  0  0  0
  1  2  2  0  0  0  0
  1  6  1  0  0  0  0
  2  3  1  0  0  0  0
  3  4  2  0  0  0  0
  4  5  1  0  0  0  0
  5  6  2  0  0  0  0
  5 11  1  0  0  0  0
  6  7  1  0  0  0  0
  7  8  2  0  0  0  0
  8  9  1  0  0  0  0
  9 10  2  0  0  0  0
  9 11  1  0  0  0  0
  1 12  1  0  0  0  0
 13 14  1  0  0  0  0
 14 15  1  0  0  0  0
 14 16  1  6  0  0  0
 16 17  1  0  0  0  0
 16 18  1  0  0  0  0
 16 19  1  0  0  0  0
  2 15  1  0  0  0  0
  3 13  1  0  0  0  0
 21 20  1  6  0  0  0
 21 22  1  0  0  0  0
 21 26  1  0  0  0  0
 22 23  1  0  0  0  0
 22 31  1  1  0  0  0
 23 24  1  0  0  0  0
 23 30  1  6  0  0  0
 24 25  1  0  0  0  0
 24 29  1  1  0  0  0
 25 26  1  0  0  0  0
 25 27  1  6  0  0  0
 27 28  1  0  0  0  0
  4 20  1  0  0  0  0
  8 32  1  0  0  0  0
  7 33  1  0  0  0  0
M  END
> <score_Kier1>
0.517691

$$$$
suggested molecule #3
 MOE2019            2D

 33 36  0  0  1  0  0  0  0  0999 V2000
    3.4992   -1.2833    0.0000 C   0  0  0  0  0  0  0  0  0  1  0  0
    4.9992   -1.2762    0.0000 C   0  0  0  0  0  0  0  0  0  2  0  0
    5.7430    0.0263    0.0000 C   0  0  0  0  0  0  0  0  0  3  0  0
    4.9869    1.3218    0.0000 C   0  0  0  0  0  0  0  0  0  4  0  0
    3.4870    1.3147    0.0000 C   0  0  0  0  0  0  0  0  0  5  0  0
    2.7431    0.0122    0.0000 C   0  0  0  0  0  0  0  0  0  6  0  0
    1.2431    0.0051    0.0000 C   0  0  0  0  0  0  0  0  0  7  0  0
    0.4870    1.3006    0.0000 C   0  0  0  0  0  0  0  0  0  8  0  0
    1.2309    2.6032    0.0000 C   0  0  0  0  0  0  0  0  0  9  0  0
    0.4748    3.8987    0.0000 O   0  0  0  0  0  0  0  0  0 10  0  0
    2.7309    2.6102    0.0000 O   0  0  0  0  0  0  0  0  0 11  0  0
    2.9041   -2.3253    0.0000 H   0  0  0  0  0  0  0  0  0  0  0  0
    7.2117   -0.2787    0.0000 O   0  0  0  0  0  0  0  0  0  0  0  0
    7.3755   -1.7697    0.0000 C   0  0  1  0  0  0  0  0  0  0  0  0
    6.0081   -2.3862    0.0000 C   0  0  0  0  0  0  0  0  0  0  0  0
    8.6781   -2.5136    0.0000 C   0  0  0  0  0  0  0  0  0  0  0  0
    9.4220   -1.2110    0.0000 C   0  0  0  0  0  0  0  0  0  0  0  0
    9.9806   -3.2575    0.0000 C   0  0  0  0  0  0  0  0  0  0  0  0
    7.9342   -3.8161    0.0000 O   0  0  0  0  0  0  0  0  0  0  0  0
    5.7308    2.6244    0.0000 O   0  0  0  0  0  0  0  0  0  0  0  0
    4.9747    3.9198    0.0000 C   0  0  1  0  0  0  0  0  0  0  0  0
    5.7186    5.2224    0.0000 C   0  0  1  0  0  0  0  0  0  0  0  0
    4.9625    6.5179    0.0000 C   0  0  2  0  0  0  0  0  0  0  0  0
    3.4625    6.5108    0.0000 C   0  0  1  0  0  0  0  0  0  0  0  0
    2.7186    5.2083    0.0000 C   0  0  2  0  0  0  0  0  0  0  0  0
    3.4747    3.9128    0.0000 O   0  0  0  0  0  0  0  0  0  0  0  0
    1.2187    5.2012    0.0000 C   0  0  0  0  0  0  0  0  0  0  0  0
    0.4625    6.4967    0.0000 O   0  0  0  0  0  0  0  0  0  0  0  0
    2.7064    7.8063    0.0000 O   0  0  0  0  0  0  0  0  0  0  0  0
    5.7064    7.8204    0.0000 O   0  0  0  0  0  0  0  0  0  0  0  0
    7.2186    5.2295    0.0000 O   0  0  0  0  0  0  0  0  0  0  0  0
   -1.0130    1.2936    0.0000 O   0  0  0  0  0  0  0  0  0  0  0  0
    0.6480   -1.0369    0.0000 H   0  0  0  0  0  0  0  0  0  0  0  0
  1  2  2  0  0  0  0
  1  6  1  0  0  0  0
  2  3  1  0  0  0  0
  3  4  2  0  0  0  0
  4  5  1  0  0  0  0
  5  6  2  0  0  0  0
  5 11  1  0  0  0  0
  6  7  1  0  0  0  0
  7  8  2  0  0  0  0
  8  9  1  0  0  0  0
  9 10  2  0  0  0  0
  9 11  1  0  0  0  0
  1 12  1  0  0  0  0
 13 14  1  0  0  0  0
 14 15  1  0  0  0  0
 14 16  1  6  0  0  0
 16 17  1  0  0  0  0
 16 18  1  0  0  0  0
 16 19  1  0  0  0  0
  2 15  1  0  0  0  0
  3 13  1  0  0  0  0
 21 20  1  6  0  0  0
 21 22  1  0  0  0  0
 21 26  1  0  0  0  0
 22 23  1  0  0  0  0
 22 31  1  1  0  0  0
 23 24  1  0  0  0  0
 23 30  1  6  0  0  0
 24 25  1  0  0  0  0
 24 29  1  1  0  0  0
 25 26  1  0  0  0  0
 25 27  1  6  0  0  0
 27 28  1  0  0  0  0
  4 20  1  0  0  0  0
  8 32  1  0  0  0  0
  7 33  1  0  0  0  0
M  END
> <score_Kier2>
0.51652

$$$$
suggested molecule #4
 MOE2019            2D

 33 36  0  0  1  0  0  0  0  0999 V2000
    3.4992   -1.2833    0.0000 C   0  0  0  0  0  0  0  0  0  1  0  0
    4.9992   -1.2762    0.0000 C   0  0  0  0  0  0  0  0  0  2  0  0
    5.7430    0.0263    0.0000 C   0  0  0  0  0  0  0  0  0  3  0  0
    4.9869    1.3218    0.0000 C   0  0  0  0  0  0  0  0  0  4  0  0
    3.4870    1.3147    0.0000 C   0  0  0  0  0  0  0  0  0  5  0  0
    2.7431    0.0122    0.0000 C   0  0  0  0  0  0  0  0  0  6  0  0
    1.2431    0.0051    0.0000 C   0  0  0  0  0  0  0  0  0  7  0  0
    0.4870    1.3006    0.0000 C   0  0  0  0  0  0  0  0  0  8  0  0
    1.2309    2.6032    0.0000 C   0  0  0  0  0  0  0  0  0  9  0  0
    0.4748    3.8987    0.0000 O   0  0  0  0  0  0  0  0  0 10  0  0
    2.7309    2.6102    0.0000 O   0  0  0  0  0  0  0  0  0 11  0  0
    2.9041   -2.3253    0.0000 H   0  0  0  0  0  0  0  0  0  0  0  0
    7.2117   -0.2787    0.0000 O   0  0  0  0  0  0  0  0  0  0  0  0
    7.3755   -1.7697    0.0000 C   0  0  1  0  0  0  0  0  0  0  0  0
    6.0081   -2.3862    0.0000 C   0  0  0  0  0  0  0  0  0  0  0  0
    8.6781   -2.5136    0.0000 C   0  0  0  0  0  0  0  0  0  0  0  0
    9.4220   -1.2110    0.0000 C   0  0  0  0  0  0  0  0  0  0  0  0
    9.9806   -3.2575    0.0000 C   0  0  0  0  0  0  0  0  0  0  0  0
    7.9342   -3.8161    0.0000 O   0  0  0  0  0  0  0  0  0  0  0  0
    5.7308    2.6244    0.0000 O   0  0  0  0  0  0  0  0  0  0  0  0
    4.9747    3.9198    0.0000 C   0  0  1  0  0  0  0  0  0  0  0  0
    5.7186    5.2224    0.0000 C   0  0  1  0  0  0  0  0  0  0  0  0
    4.9625    6.5179    0.0000 C   0  0  2  0  0  0  0  0  0  0  0  0
    3.4625    6.5108    0.0000 C   0  0  1  0  0  0  0  0  0  0  0  0
    2.7186    5.2083    0.0000 C   0  0  2  0  0  0  0  0  0  0  0  0
    3.4747    3.9128    0.0000 O   0  0  0  0  0  0  0  0  0  0  0  0
    1.2187    5.2012    0.0000 C   0  0  0  0  0  0  0  0  0  0  0  0
    0.4625    6.4967    0.0000 O   0  0  0  0  0  0  0  0  0  0  0  0
    2.7064    7.8063    0.0000 O   0  0  0  0  0  0  0  0  0  0  0  0
    5.7064    7.8204    0.0000 O   0  0  0  0  0  0  0  0  0  0  0  0
    7.2186    5.2295    0.0000 O   0  0  0  0  0  0  0  0  0  0  0  0
   -1.0130    1.2936    0.0000 O   0  0  0  0  0  0  0  0  0  0  0  0
    0.6480   -1.0369    0.0000 H   0  0  0  0  0  0  0  0  0  0  0  0
  1  2  2  0  0  0  0
  1  6  1  0  0  0  0
  2  3  1  0  0  0  0
  3  4  2  0  0  0  0
  4  5  1  0  0  0  0
  5  6  2  0  0  0  0
  5 11  1  0  0  0  0
  6  7  1  0  0  0  0
  7  8  2  0  0  0  0
  8  9  1  0  0  0  0
  9 10  2  0  0  0  0
  9 11  1  0  0  0  0
  1 12  1  0  0  0  0
 13 14  1  0  0  0  0
 14 15  1  0  0  0  0
 14 16  1  6  0  0  0
 16 17  1  0  0  0  0
 16 18  1  0  0  0  0
 16 19  1  0  0  0  0
  2 15  1  0  0  0  0
  3 13  1  0  0  0  0
 21 20  1  6  0  0  0
 21 22  1  0  0  0  0
 21 26  1  0  0  0  0
 22 23  1  0  0  0  0
 22 31  1  1  0  0  0
 23 24  1  0  0  0  0
 23 30  1  6  0  0  0
 24 25  1  0  0  0  0
 24 29  1  1  0  0  0
 25 26  1  0  0  0  0
 25 27  1  6  0  0  0
 27 28  1  0  0  0  0
  4 20  1  0  0  0  0
  8 32  1  0  0  0  0
  7 33  1  0  0  0  0
M  END
> <score_Kier3>
0.51144

$$$$
suggested molecule #5
 MOE2019            2D

 33 36  0  0  1  0  0  0  0  0999 V2000
    3.4992   -1.2833    0.0000 C   0  0  0  0  0  0  0  0  0  1  0  0
    4.9992   -1.2762    0.0000 C   0  0  0  0  0  0  0  0  0  2  0  0
    5.7430    0.0263    0.0000 C   0  0  0  0  0  0  0  0  0  3  0  0
    4.9869    1.3218    0.0000 C   0  0  0  0  0  0  0  0  0  4  0  0
    3.4870    1.3147    0.0000 C   0  0  0  0  0  0  0  0  0  5  0  0
    2.7431    0.0122    0.0000 C   0  0  0  0  0  0  0  0  0  6  0  0
    1.2431    0.0051    0.0000 C   0  0  0  0  0  0  0  0  0  7  0  0
    0.4870    1.3006    0.0000 C   0  0  0  0  0  0  0  0  0  8  0  0
    1.2309    2.6032    0.0000 C   0  0  0  0  0  0  0  0  0  9  0  0
    0.4748    3.8987    0.0000 O   0  0  0  0  0  0  0  0  0 10  0  0
    2.7309    2.6102    0.0000 O   0  0  0  0  0  0  0  0  0 11  0  0
    2.9041   -2.3253    0.0000 H   0  0  0  0  0  0  0  0  0  0  0  0
    7.2117   -0.2787    0.0000 O   0  0  0  0  0  0  0  0  0  0  0  0
    7.3755   -1.7697    0.0000 C   0  0  1  0  0  0  0  0  0  0  0  0
    6.0081   -2.3862    0.0000 C   0  0  0  0  0  0  0  0  0  0  0  0
    8.6781   -2.5136    0.0000 C   0  0  0  0  0  0  0  0  0  0  0  0
    9.4220   -1.2110    0.0000 C   0  0  0  0  0  0  0  0  0  0  0  0
    9.9806   -3.2575    0.0000 C   0  0  0  0  0  0  0  0  0  0  0  0
    7.9342   -3.8161    0.0000 O   0  0  0  0  0  0  0  0  0  0  0  0
    5.7308    2.6244    0.0000 O   0  0  0  0  0  0  0  0  0  0  0  0
    4.9747    3.9198    0.0000 C   0  0  1  0  0  0  0  0  0  0  0  0
    5.7186    5.2224    0.0000 C   0  0  1  0  0  0  0  0  0  0  0  0
    4.9625    6.5179    0.0000 C   0  0  2  0  0  0  0  0  0  0  0  0
    3.4625    6.5108    0.0000 C   0  0  1  0  0  0  0  0  0  0  0  0
    2.7186    5.2083    0.0000 C   0  0  2  0  0  0  0  0  0  0  0  0
    3.4747    3.9128    0.0000 O   0  0  0  0  0  0  0  0  0  0  0  0
    1.2187    5.2012    0.0000 C   0  0  0  0  0  0  0  0  0  0  0  0
    0.4625    6.4967    0.0000 O   0  0  0  0  0  0  0  0  0  0  0  0
    2.7064    7.8063    0.0000 O   0  0  0  0  0  0  0  0  0  0  0  0
    5.7064    7.8204    0.0000 O   0  0  0  0  0  0  0  0  0  0  0  0
    7.2186    5.2295    0.0000 O   0  0  0  0  0  0  0  0  0  0  0  0
   -1.0130    1.2936    0.0000 O   0  0  0  0  0  0  0  0  0  0  0  0
    0.6480   -1.0369    0.0000 H   0  0  0  0  0  0  0  0  0  0  0  0
  1  2  2  0  0  0  0
  1  6  1  0  0  0  0
  2  3  1  0  0  0  0
  3  4  2  0  0  0  0
  4  5  1  0  0  0  0
  5  6  2  0  0  0  0
  5 11  1  0  0  0  0
  6  7  1  0  0  0  0
  7  8  2  0  0  0  0
  8  9  1  0  0  0  0
  9 10  2  0  0  0  0
  9 11  1  0  0  0  0
  1 12  1  0  0  0  0
 13 14  1  0  0  0  0
 14 15  1  0  0  0  0
 14 16  1  6  0  0  0
 16 17  1  0  0  0  0
 16 18  1  0  0  0  0
 16 19  1  0  0  0  0
  2 15  1  0  0  0  0
  3 13  1  0  0  0  0
 21 20  1  6  0  0  0
 21 22  1  0  0  0  0
 21 26  1  0  0  0  0
 22 23  1  0  0  0  0
 22 31  1  1  0  0  0
 23 24  1  0  0  0  0
 23 30  1  6  0  0  0
 24 25  1  0  0  0  0
 24 29  1  1  0  0  0
 25 26  1  0  0  0  0
 25 27  1  6  0  0  0
 27 28  1  0  0  0  0
  4 20  1  0  0  0  0
  8 32  1  0  0  0  0
  7 33  1  0  0  0  0
M  END
> <score_KierA2>
0.51675

$$$$
suggested molecule #6
 MOE2019            2D

 33 36  0  0  1  0  0  0  0  0999 V2000
    3.4992   -1.2833    0.0000 C   0  0  0  0  0  0  0  0  0  1  0  0
    4.9992   -1.2762    0.0000 C   0  0  0  0  0  0  0  0  0  2  0  0
    5.7430    0.0263    0.0000 C   0  0  0  0  0  0  0  0  0  3  0  0
    4.9869    1.3218    0.0000 C   0  0  0  0  0  0  0  0  0  4  0  0
    3.4870    1.3147    0.0000 C   0  0  0  0  0  0  0  0  0  5  0  0
    2.7431    0.0122    0.0000 C   0  0  0  0  0  0  0  0  0  6  0  0
    1.2431    0.0051    0.0000 C   0  0  0  0  0  0  0  0  0  7  0  0
    0.4870    1.3006    0.0000 C   0  0  0  0  0  0  0  0  0  8  0  0
    1.2309    2.6032    0.0000 C   0  0  0  0  0  0  0  0  0  9  0  0
    0.4748    3.8987    0.0000 O   0  0  0  0  0  0  0  0  0 10  0  0
    2.7309    2.6102    0.0000 O   0  0  0  0  0  0  0  0  0 11  0  0
    2.9041   -2.3253    0.0000 H   0  0  0  0  0  0  0  0  0  0  0  0
    7.2117   -0.2787    0.0000 O   0  0  0  0  0  0  0  0  0  0  0  0
    7.3755   -1.7697    0.0000 C   0  0  1  0  0  0  0  0  0  0  0  0
    6.0081   -2.3862    0.0000 C   0  0  0  0  0  0  0  0  0  0  0  0
    8.6781   -2.5136    0.0000 C   0  0  0  0  0  0  0  0  0  0  0  0
    9.4220   -1.2110    0.0000 C   0  0  0  0  0  0  0  0  0  0  0  0
    9.9806   -3.2575    0.0000 C   0  0  0  0  0  0  0  0  0  0  0  0
    7.9342   -3.8161    0.0000 O   0  0  0  0  0  0  0  0  0  0  0  0
    5.7308    2.6244    0.0000 O   0  0  0  0  0  0  0  0  0  0  0  0
    4.9747    3.9198    0.0000 C   0  0  1  0  0  0  0  0  0  0  0  0
    5.7186    5.2224    0.0000 C   0  0  1  0  0  0  0  0  0  0  0  0
    4.9625    6.5179    0.0000 C   0  0  2  0  0  0  0  0  0  0  0  0
    3.4625    6.5108    0.0000 C   0  0  1  0  0  0  0  0  0  0  0  0
    2.7186    5.2083    0.0000 C   0  0  2  0  0  0  0  0  0  0  0  0
    3.4747    3.9128    0.0000 O   0  0  0  0  0  0  0  0  0  0  0  0
    1.2187    5.2012    0.0000 C   0  0  0  0  0  0  0  0  0  0  0  0
    0.4625    6.4967    0.0000 O   0  0  0  0  0  0  0  0  0  0  0  0
    2.7064    7.8063    0.0000 O   0  0  0  0  0  0  0  0  0  0  0  0
    5.7064    7.8204    0.0000 O   0  0  0  0  0  0  0  0  0  0  0  0
    7.2186    5.2295    0.0000 O   0  0  0  0  0  0  0  0  0  0  0  0
   -1.0130    1.2936    0.0000 O   0  0  0  0  0  0  0  0  0  0  0  0
    0.6480   -1.0369    0.0000 H   0  0  0  0  0  0  0  0  0  0  0  0
  1  2  2  0  0  0  0
  1  6  1  0  0  0  0
  2  3  1  0  0  0  0
  3  4  2  0  0  0  0
  4  5  1  0  0  0  0
  5  6  2  0  0  0  0
  5 11  1  0  0  0  0
  6  7  1  0  0  0  0
  7  8  2  0  0  0  0
  8  9  1  0  0  0  0
  9 10  2  0  0  0  0
  9 11  1  0  0  0  0
  1 12  1  0  0  0  0
 13 14  1  0  0  0  0
 14 15  1  0  0  0  0
 14 16  1  6  0  0  0
 16 17  1  0  0  0  0
 16 18  1  0  0  0  0
 16 19  1  0  0  0  0
  2 15  1  0  0  0  0
  3 13  1  0  0  0  0
 21 20  1  6  0  0  0
 21 22  1  0  0  0  0
 21 26  1  0  0  0  0
 22 23  1  0  0  0  0
 22 31  1  1  0  0  0
 23 24  1  0  0  0  0
 23 30  1  6  0  0  0
 24 25  1  0  0  0  0
 24 29  1  1  0  0  0
 25 26  1  0  0  0  0
 25 27  1  6  0  0  0
 27 28  1  0  0  0  0
  4 20  1  0  0  0  0
  8 32  1  0  0  0  0
  7 33  1  0  0  0  0
M  END
> <score_KierFlex>
0.516287

$$$$
suggested molecule #7
 MOE2019            2D

 42 46  0  0  1  0  0  0  0  0999 V2000
    3.4992   -1.2833    0.0000 C   0  0  0  0  0  0  0  0  0  1  0  0
    4.9992   -1.2762    0.0000 C   0  0  0  0  0  0  0  0  0  2  0  0
    5.7430    0.0263    0.0000 C   0  0  0  0  0  0  0  0  0  3  0  0
    4.9869    1.3218    0.0000 C   0  0  0  0  0  0  0  0  0  4  0  0
    3.4870    1.3147    0.0000 C   0  0  0  0  0  0  0  0  0  5  0  0
    2.7431    0.0122    0.0000 C   0  0  0  0  0  0  0  0  0  6  0  0
    1.2431    0.0051    0.0000 C   0  0  0  0  0  0  0  0  0  7  0  0
    0.4870    1.3006    0.0000 C   0  0  0  0  0  0  0  0  0  8  0  0
    1.2309    2.6032    0.0000 C   0  0  0  0  0  0  0  0  0  9  0  0
    0.4748    3.8987    0.0000 O   0  0  0  0  0  0  0  0  0 10  0  0
    2.7309    2.6102    0.0000 O   0  0  0  0  0  0  0  0  0 11  0  0
    2.9041   -2.3253    0.0000 H   0  0  0  0  0  0  0  0  0  0  0  0
    7.2117   -0.2787    0.0000 O   0  0  0  0  0  0  0  0  0  0  0  0
    7.3755   -1.7697    0.0000 C   0  0  1  0  0  0  0  0  0  0  0  0
    6.0081   -2.3862    0.0000 C   0  0  0  0  0  0  0  0  0  0  0  0
    8.6781   -2.5136    0.0000 C   0  0  0  0  0  0  0  0  0  0  0  0
    9.9806   -3.2575    0.0000 C   0  0  0  0  0  0  0  0  0  0  0  0
    9.4220   -1.2110    0.0000 C   0  0  0  0  0  0  0  0  0  0  0  0
    7.9342   -3.8161    0.0000 O   0  0  0  0  0  0  0  0  0  0  0  0
    5.7308    2.6244    0.0000 O   0  0  0  0  0  0  0  0  0  0  0  0
    7.2308    2.6314    0.0000 C   0  0  1  0  0  0  0  0  0  0  0  0
    7.9747    3.9340    0.0000 C   0  0  1  0  0  0  0  0  0  0  0  0
    9.4747    3.9410    0.0000 C   0  0  2  0  0  0  0  0  0  0  0  0
   10.2308    2.6455    0.0000 C   0  0  1  0  0  0  0  0  0  0  0  0
    9.4869    1.3430    0.0000 C   0  0  2  0  0  0  0  0  0  0  0  0
    7.9869    1.3359    0.0000 O   0  0  0  0  0  0  0  0  0  0  0  0
   10.2430    0.0475    0.0000 C   0  0  0  0  0  0  0  0  0  0  0  0
   11.7430    0.0545    0.0000 O   0  0  0  0  0  0  0  0  0  0  0  0
   11.7308    2.6526    0.0000 O   0  0  0  0  0  0  0  0  0  0  0  0
   10.2186    5.2436    0.0000 O   0  0  0  0  0  0  0  0  0  0  0  0
    7.2186    5.2295    0.0000 O   0  0  0  0  0  0  0  0  0  0  0  0
   -1.0130    1.2936    0.0000 O   0  0  0  0  0  0  0  0  0  0  0  0
   -1.7569   -0.0090    0.0000 C   0  0  1  0  0  0  0  0  0  0  0  0
   -3.2479   -0.1728    0.0000 C   0  0  1  0  0  0  0  0  0  0  0  0
   -3.5529   -1.6414    0.0000 C   0  0  2  0  0  0  0  0  0  0  0  0
   -2.2503   -2.3853    0.0000 C   0  0  1  0  0  0  0  0  0  0  0  0
   -1.1403   -1.3764    0.0000 O   0  0  0  0  0  0  0  0  0  0  0  0
   -2.0865   -3.8764    0.0000 C   0  0  0  0  0  0  0  0  0  0  0  0
   -3.2959   -4.7637    0.0000 O   0  0  0  0  0  0  0  0  0  0  0  0
   -4.9203   -2.2580    0.0000 O   0  0  0  0  0  0  0  0  0  0  0  0
   -4.2568    0.9372    0.0000 O   0  0  0  0  0  0  0  0  0  0  0  0
    0.6480   -1.0369    0.0000 H   0  0  0  0  0  0  0  0  0  0  0  0
  1  2  2  0  0  0  0
  1  6  1  0  0  0  0
  2  3  1  0  0  0  0
  3  4  2  0  0  0  0
  4  5  1  0  0  0  0
  5  6  2  0  0  0  0
  5 11  1  0  0  0  0
  6  7  1  0  0  0  0
  7  8  2  0  0  0  0
  8  9  1  0  0  0  0
  9 10  2  0  0  0  0
  9 11  1  0  0  0  0
  1 12  1  0  0  0  0
 13 14  1  0  0  0  0
 14 15  1  0  0  0  0
 14 16  1  6  0  0  0
 16 17  1  0  0  0  0
 16 18  1  0  0  0  0
 16 19  1  0  0  0  0
  2 15  1  0  0  0  0
  3 13  1  0  0  0  0
 21 20  1  6  0  0  0
 21 22  1  0  0  0  0
 21 26  1  0  0  0  0
 22 23  1  0  0  0  0
 22 31  1  1  0  0  0
 23 24  1  0  0  0  0
 23 30  1  6  0  0  0
 24 25  1  0  0  0  0
 24 29  1  1  0  0  0
 25 26  1  0  0  0  0
 25 27  1  6  0  0  0
 27 28  1  0  0  0  0
  4 20  1  0  0  0  0
 33 32  1  1  0  0  0
 33 34  1  0  0  0  0
 33 37  1  0  0  0  0
 34 35  1  0  0  0  0
 34 41  1  6  0  0  0
 35 36  1  0  0  0  0
 35 40  1  1  0  0  0
 36 37  1  0  0  0  0
 36 38  1  6  0  0  0
 38 39  1  0  0  0  0
  8 32  1  0  0  0  0
  7 42  1  0  0  0  0
M  END
> <score_Kier2>
0.516453

$$$$
suggested molecule #8
 MOE2019            2D

 36 39  0  0  1  0  0  0  0  0999 V2000
    3.4992   -1.2833    0.0000 C   0  0  0  0  0  0  0  0  0  1  0  0
    4.9992   -1.2762    0.0000 C   0  0  0  0  0  0  0  0  0  2  0  0
    5.7430    0.0263    0.0000 C   0  0  0  0  0  0  0  0  0  3  0  0
    4.9869    1.3218    0.0000 C   0  0  0  0  0  0  0  0  0  4  0  0
    3.4870    1.3147    0.0000 C   0  0  0  0  0  0  0  0  0  5  0  0
    2.7431    0.0122    0.0000 C   0  0  0  0  0  0  0  0  0  6  0  0
    1.2431    0.0051    0.0000 C   0  0  0  0  0  0  0  0  0  7  0  0
    0.4870    1.3006    0.0000 C   0  0  0  0  0  0  0  0  0  8  0  0
    1.2309    2.6032    0.0000 C   0  0  0  0  0  0  0  0  0  9  0  0
    0.4748    3.8987    0.0000 O   0  0  0  0  0  0  0  0  0 10  0  0
    2.7309    2.6102    0.0000 O   0  0  0  0  0  0  0  0  0 11  0  0
    2.9041   -2.3253    0.0000 H   0  0  0  0  0  0  0  0  0  0  0  0
    7.2117   -0.2787    0.0000 O   0  0  0  0  0  0  0  0  0  0  0  0
    7.3755   -1.7697    0.0000 C   0  0  1  0  0  0  0  0  0  0  0  0
    6.0081   -2.3862    0.0000 C   0  0  0  0  0  0  0  0  0  0  0  0
    8.6781   -2.5136    0.0000 C   0  0  0  0  0  0  0  0  0  0  0  0
    7.9342   -3.8161    0.0000 C   0  0  0  0  0  0  0  0  0  0  0  0
    9.4220   -1.2110    0.0000 C   0  0  0  0  0  0  0  0  0  0  0  0
    9.9806   -3.2575    0.0000 O   0  0  0  0  0  0  0  0  0  0  0  0
    5.7308    2.6244    0.0000 O   0  0  0  0  0  0  0  0  0  0  0  0
    7.2308    2.6314    0.0000 C   0  0  1  0  0  0  0  0  0  0  0  0
    7.9747    3.9340    0.0000 C   0  0  1  0  0  0  0  0  0  0  0  0
    9.4747    3.9410    0.0000 C   0  0  2  0  0  0  0  0  0  0  0  0
   10.2308    2.6455    0.0000 C   0  0  1  0  0  0  0  0  0  0  0  0
    9.4869    1.3430    0.0000 C   0  0  2  0  0  0  0  0  0  0  0  0
    7.9869    1.3359    0.0000 O   0  0  0  0  0  0  0  0  0  0  0  0
   10.2430    0.0475    0.0000 C   0  0  0  0  0  0  0  0  0  0  0  0
   11.7430    0.0545    0.0000 O   0  0  0  0  0  0  0  0  0  0  0  0
   11.7308    2.6526    0.0000 O   0  0  0  0  0  0  0  0  0  0  0  0
   10.2186    5.2436    0.0000 O   0  0  0  0  0  0  0  0  0  0  0  0
    7.2186    5.2295    0.0000 O   0  0  0  0  0  0  0  0  0  0  0  0
   -1.0130    1.2936    0.0000 C   0  0  0  0  0  0  0  0  0  0  0  0
   -1.7569   -0.0090    0.0000 C   0  0  0  0  0  0  0  0  0  0  0  0
   -1.0008   -1.3045    0.0000 O   0  0  0  0  0  0  0  0  0  0  0  0
   -3.2569   -0.0160    0.0000 O   0  0  0  0  0  0  0  0  0  0  0  0
    0.6480   -1.0369    0.0000 H   0  0  0  0  0  0  0  0  0  0  0  0
  1  2  2  0  0  0  0
  1  6  1  0  0  0  0
  2  3  1  0  0  0  0
  3  4  2  0  0  0  0
  4  5  1  0  0  0  0
  5  6  2  0  0  0  0
  5 11  1  0  0  0  0
  6  7  1  0  0  0  0
  7  8  2  0  0  0  0
  8  9  1  0  0  0  0
  9 10  2  0  0  0  0
  9 11  1  0  0  0  0
  1 12  1  0  0  0  0
 13 14  1  0  0  0  0
 14 15  1  0  0  0  0
 14 16  1  6  0  0  0
 16 17  1  0  0  0  0
 16 18  1  0  0  0  0
 16 19  1  0  0  0  0
  2 15  1  0  0  0  0
  3 13  1  0  0  0  0
 21 20  1  6  0  0  0
 21 22  1  0  0  0  0
 21 26  1  0  0  0  0
 22 23  1  0  0  0  0
 22 31  1  1  0  0  0
 23 24  1  0  0  0  0
 23 30  1  6  0  0  0
 24 25  1  0  0  0  0
 24 29  1  1  0  0  0
 25 26  1  0  0  0  0
 25 27  1  6  0  0  0
 27 28  1  0  0  0  0
  4 20  1  0  0  0  0
 32 33  1  0  0  0  0
 33 34  2  0  0  0  0
 33 35  1  0  0  0  0
  8 32  1  0  0  0  0
  7 36  1  0  0  0  0
M  END
> <score_Kier1>
0.517725

$$$$
suggested molecule #9
 MOE2019            2D

 36 39  0  0  1  0  0  0  0  0999 V2000
    3.4992   -1.2833    0.0000 C   0  0  0  0  0  0  0  0  0  1  0  0
    4.9992   -1.2762    0.0000 C   0  0  0  0  0  0  0  0  0  2  0  0
    5.7430    0.0263    0.0000 C   0  0  0  0  0  0  0  0  0  3  0  0
    4.9869    1.3218    0.0000 C   0  0  0  0  0  0  0  0  0  4  0  0
    3.4870    1.3147    0.0000 C   0  0  0  0  0  0  0  0  0  5  0  0
    2.7431    0.0122    0.0000 C   0  0  0  0  0  0  0  0  0  6  0  0
    1.2431    0.0051    0.0000 C   0  0  0  0  0  0  0  0  0  7  0  0
    0.4870    1.3006    0.0000 C   0  0  0  0  0  0  0  0  0  8  0  0
    1.2309    2.6032    0.0000 C   0  0  0  0  0  0  0  0  0  9  0  0
    0.4748    3.8987    0.0000 O   0  0  0  0  0  0  0  0  0 10  0  0
    2.7309    2.6102    0.0000 O   0  0  0  0  0  0  0  0  0 11  0  0
    2.9041   -2.3253    0.0000 H   0  0  0  0  0  0  0  0  0  0  0  0
    7.2117   -0.2787    0.0000 O   0  0  0  0  0  0  0  0  0  0  0  0
    7.3755   -1.7697    0.0000 C   0  0  1  0  0  0  0  0  0  0  0  0
    6.0081   -2.3862    0.0000 C   0  0  0  0  0  0  0  0  0  0  0  0
    8.6781   -2.5136    0.0000 C   0  0  0  0  0  0  0  0  0  0  0  0
    7.9342   -3.8161    0.0000 C   0  0  0  0  0  0  0  0  0  0  0  0
    9.4220   -1.2110    0.0000 C   0  0  0  0  0  0  0  0  0  0  0  0
    9.9806   -3.2575    0.0000 O   0  0  0  0  0  0  0  0  0  0  0  0
    5.7308    2.6244    0.0000 O   0  0  0  0  0  0  0  0  0  0  0  0
    7.2308    2.6314    0.0000 C   0  0  1  0  0  0  0  0  0  0  0  0
    7.9747    3.9340    0.0000 C   0  0  1  0  0  0  0  0  0  0  0  0
    9.4747    3.9410    0.0000 C   0  0  2  0  0  0  0  0  0  0  0  0
   10.2308    2.6455    0.0000 C   0  0  1  0  0  0  0  0  0  0  0  0
    9.4869    1.3430    0.0000 C   0  0  2  0  0  0  0  0  0  0  0  0
    7.9869    1.3359    0.0000 O   0  0  0  0  0  0  0  0  0  0  0  0
   10.2430    0.0475    0.0000 C   0  0  0  0  0  0  0  0  0  0  0  0
   11.7430    0.0545    0.0000 O   0  0  0  0  0  0  0  0  0  0  0  0
   11.7308    2.6526    0.0000 O   0  0  0  0  0  0  0  0  0  0  0  0
   10.2186    5.2436    0.0000 O   0  0  0  0  0  0  0  0  0  0  0  0
    7.2186    5.2295    0.0000 O   0  0  0  0  0  0  0  0  0  0  0  0
   -1.0130    1.2936    0.0000 C   0  0  0  0  0  0  0  0  0  0  0  0
   -1.7569   -0.0090    0.0000 C   0  0  0  0  0  0  0  0  0  0  0  0
   -1.0008   -1.3045    0.0000 O   0  0  0  0  0  0  0  0  0  0  0  0
   -3.2569   -0.0160    0.0000 O   0  0  0  0  0  0  0  0  0  0  0  0
    0.6480   -1.0369    0.0000 H   0  0  0  0  0  0  0  0  0  0  0  0
  1  2  2  0  0  0  0
  1  6  1  0  0  0  0
  2  3  1  0  0  0  0
  3  4  2  0  0  0  0
  4  5  1  0  0  0  0
  5  6  2  0  0  0  0
  5 11  1  0  0  0  0
  6  7  1  0  0  0  0
  7  8  2  0  0  0  0
  8  9  1  0  0  0  0
  9 10  2  0  0  0  0
  9 11  1  0  0  0  0
  1 12  1  0  0  0  0
 13 14  1  0  0  0  0
 14 15  1  0  0  0  0
 14 16  1  6  0  0  0
 16 17  1  0  0  0  0
 16 18  1  0  0  0  0
 16 19  1  0  0  0  0
  2 15  1  0  0  0  0
  3 13  1  0  0  0  0
 21 20  1  6  0  0  0
 21 22  1  0  0  0  0
 21 26  1  0  0  0  0
 22 23  1  0  0  0  0
 22 31  1  1  0  0  0
 23 24  1  0  0  0  0
 23 30  1  6  0  0  0
 24 25  1  0  0  0  0
 24 29  1  1  0  0  0
 25 26  1  0  0  0  0
 25 27  1  6  0  0  0
 27 28  1  0  0  0  0
  4 20  1  0  0  0  0
 32 33  1  0  0  0  0
 33 34  2  0  0  0  0
 33 35  1  0  0  0  0
  8 32  1  0  0  0  0
  7 36  1  0  0  0  0
M  END
> <score_Kier2>
0.516513

$$$$
suggested molecule #10
 MOE2019            2D

 42 46  0  0  1  0  0  0  0  0999 V2000
    3.4992   -1.2833    0.0000 C   0  0  0  0  0  0  0  0  0  1  0  0
    4.9992   -1.2762    0.0000 C   0  0  0  0  0  0  0  0  0  2  0  0
    5.7430    0.0263    0.0000 C   0  0  0  0  0  0  0  0  0  3  0  0
    4.9869    1.3218    0.0000 C   0  0  0  0  0  0  0  0  0  4  0  0
    3.4870    1.3147    0.0000 C   0  0  0  0  0  0  0  0  0  5  0  0
    2.7431    0.0122    0.0000 C   0  0  0  0  0  0  0  0  0  6  0  0
    1.2431    0.0051    0.0000 C   0  0  0  0  0  0  0  0  0  7  0  0
    0.4870    1.3006    0.0000 C   0  0  0  0  0  0  0  0  0  8  0  0
    1.2309    2.6032    0.0000 C   0  0  0  0  0  0  0  0  0  9  0  0
    0.4748    3.8987    0.0000 O   0  0  0  0  0  0  0  0  0 10  0  0
    2.7309    2.6102    0.0000 O   0  0  0  0  0  0  0  0  0 11  0  0
    2.9041   -2.3253    0.0000 H   0  0  0  0  0  0  0  0  0  0  0  0
    7.2117   -0.2787    0.0000 O   0  0  0  0  0  0  0  0  0  0  0  0
    7.3755   -1.7697    0.0000 C   0  0  1  0  0  0  0  0  0  0  0  0
    6.0081   -2.3862    0.0000 C   0  0  0  0  0  0  0  0  0  0  0  0
    8.6781   -2.5136    0.0000 C   0  0  0  0  0  0  0  0  0  0  0  0
    9.9806   -3.2575    0.0000 C   0  0  0  0  0  0  0  0  0  0  0  0
    7.9342   -3.8161    0.0000 C   0  0  0  0  0  0  0  0  0  0  0  0
    9.4220   -1.2110    0.0000 O   0  0  0  0  0  0  0  0  0  0  0  0
    5.7308    2.6244    0.0000 O   0  0  0  0  0  0  0  0  0  0  0  0
    7.2308    2.6314    0.0000 C   0  0  1  0  0  0  0  0  0  0  0  0
    7.9747    3.9340    0.0000 C   0  0  1  0  0  0  0  0  0  0  0  0
    9.4747    3.9410    0.0000 C   0  0  2  0  0  0  0  0  0  0  0  0
   10.2308    2.6455    0.0000 C   0  0  1  0  0  0  0  0  0  0  0  0
    9.4869    1.3430    0.0000 C   0  0  2  0  0  0  0  0  0  0  0  0
    7.9869    1.3359    0.0000 O   0  0  0  0  0  0  0  0  0  0  0  0
   10.2430    0.0475    0.0000 C   0  0  0  0  0  0  0  0  0  0  0  0
   11.7430    0.0545    0.0000 O   0  0  0  0  0  0  0  0  0  0  0  0
   11.7308    2.6526    0.0000 O   0  0  0  0  0  0  0  0  0  0  0  0
   10.2186    5.2436    0.0000 O   0  0  0  0  0  0  0  0  0  0  0  0
    7.2186    5.2295    0.0000 O   0  0  0  0  0  0  0  0  0  0  0  0
   -6.2690    2.5679    0.0000 C   0  0  0  0  0  0  0  0  0  0  0  0
   -5.5129    1.2724    0.0000 O   0  0  0  0  0  0  0  0  0  0  0  0
   -4.0130    1.2795    0.0000 C   0  0  0  0  0  0  0  0  0  0  0  0
   -3.2569   -0.0160    0.0000 C   0  0  0  0  0  0  0  0  0  0  0  0
   -1.7569   -0.0090    0.0000 C   0  0  0  0  0  0  0  0  0  0  0  0
   -1.0130    1.2936    0.0000 C   0  0  0  0  0  0  0  0  0  0  0  0
   -1.7691    2.5891    0.0000 C   0  0  0  0  0  0  0  0  0  0  0  0
   -3.2691    2.5820    0.0000 C   0  0  0  0  0  0  0  0  0  0  0  0
   -1.0008   -1.3045    0.0000 O   0  0  0  0  0  0  0  0  0  0  0  0
   -4.0007   -1.3186    0.0000 O   0  0  0  0  0  0  0  0  0  0  0  0
    0.6480   -1.0369    0.0000 H   0  0  0  0  0  0  0  0  0  0  0  0
  1  2  2  0  0  0  0
  1  6  1  0  0  0  0
  2  3  1  0  0  0  0
  3  4  2  0  0  0  0
  4  5  1  0  0  0  0
  5  6  2  0  0  0  0
  5 11  1  0  0  0  0
  6  7  1  0  0  0  0
  7  8  2  0  0  0  0
  8  9  1  0  0  0  0
  9 10  2  0  0  0  0
  9 11  1  0  0  0  0
  1 12  1  0  0  0  0
 13 14  1  0  0  0  0
 14 15  1  0  0  0  0
 14 16  1  6  0  0  0
 16 17  1  0  0  0  0
 16 18  1  0  0  0  0
 16 19  1  0  0  0  0
  2 15  1  0  0  0  0
  3 13  1  0  0  0  0
 21 20  1  6  0  0  0
 21 22  1  0  0  0  0
 21 26  1  0  0  0  0
 22 23  1  0  0  0  0
 22 31  1  1  0  0  0
 23 24  1  0  0  0  0
 23 30  1  6  0  0  0
 24 25  1  0  0  0  0
 24 29  1  1  0  0  0
 25 26  1  0  0  0  0
 25 27  1  6  0  0  0
 27 28  1  0  0  0  0
  4 20  1  0  0  0  0
 32 33  1  0  0  0  0
 33 34  1  0  0  0  0
 34 35  2  0  0  0  0
 34 39  1  0  0  0  0
 35 36  1  0  0  0  0
 35 41  1  0  0  0  0
 36 37  2  0  0  0  0
 36 40  1  0  0  0  0
 37 38  1  0  0  0  0
 38 39  2  0  0  0  0
  8 37  1  0  0  0  0
  7 42  1  0  0  0  0
M  END
> <score_Kier1>
0.517696

$$$$
suggested molecule #11
 MOE2019            2D

 42 46  0  0  1  0  0  0  0  0999 V2000
    3.4992   -1.2833    0.0000 C   0  0  0  0  0  0  0  0  0  1  0  0
    4.9992   -1.2762    0.0000 C   0  0  0  0  0  0  0  0  0  2  0  0
    5.7430    0.0263    0.0000 C   0  0  0  0  0  0  0  0  0  3  0  0
    4.9869    1.3218    0.0000 C   0  0  0  0  0  0  0  0  0  4  0  0
    3.4870    1.3147    0.0000 C   0  0  0  0  0  0  0  0  0  5  0  0
    2.7431    0.0122    0.0000 C   0  0  0  0  0  0  0  0  0  6  0  0
    1.2431    0.0051    0.0000 C   0  0  0  0  0  0  0  0  0  7  0  0
    0.4870    1.3006    0.0000 C   0  0  0  0  0  0  0  0  0  8  0  0
    1.2309    2.6032    0.0000 C   0  0  0  0  0  0  0  0  0  9  0  0
    0.4748    3.8987    0.0000 O   0  0  0  0  0  0  0  0  0 10  0  0
    2.7309    2.6102    0.0000 O   0  0  0  0  0  0  0  0  0 11  0  0
    2.9041   -2.3253    0.0000 H   0  0  0  0  0  0  0  0  0  0  0  0
    7.2117   -0.2787    0.0000 O   0  0  0  0  0  0  0  0  0  0  0  0
    7.3755   -1.7697    0.0000 C   0  0  1  0  0  0  0  0  0  0  0  0
    6.0081   -2.3862    0.0000 C   0  0  0  0  0  0  0  0  0  0  0  0
    8.6781   -2.5136    0.0000 C   0  0  0  0  0  0  0  0  0  0  0  0
    9.9806   -3.2575    0.0000 C   0  0  0  0  0  0  0  0  0  0  0  0
    7.9342   -3.8161    0.0000 C   0  0  0  0  0  0  0  0  0  0  0  0
    9.4220   -1.2110    0.0000 O   0  0  0  0  0  0  0  0  0  0  0  0
    5.7308    2.6244    0.0000 O   0  0  0  0  0  0  0  0  0  0  0  0
    7.2308    2.6314    0.0000 C   0  0  1  0  0  0  0  0  0  0  0  0
    7.9747    3.9340    0.0000 C   0  0  1  0  0  0  0  0  0  0  0  0
    9.4747    3.9410    0.0000 C   0  0  2  0  0  0  0  0  0  0  0  0
   10.2308    2.6455    0.0000 C   0  0  1  0  0  0  0  0  0  0  0  0
    9.4869    1.3430    0.0000 C   0  0  2  0  0  0  0  0  0  0  0  0
    7.9869    1.3359    0.0000 O   0  0  0  0  0  0  0  0  0  0  0  0
   10.2430    0.0475    0.0000 C   0  0  0  0  0  0  0  0  0  0  0  0
   11.7430    0.0545    0.0000 O   0  0  0  0  0  0  0  0  0  0  0  0
   11.7308    2.6526    0.0000 O   0  0  0  0  0  0  0  0  0  0  0  0
   10.2186    5.2436    0.0000 O   0  0  0  0  0  0  0  0  0  0  0  0
    7.2186    5.2295    0.0000 O   0  0  0  0  0  0  0  0  0  0  0  0
   -6.2690    2.5679    0.0000 C   0  0  0  0  0  0  0  0  0  0  0  0
   -5.5129    1.2724    0.0000 O   0  0  0  0  0  0  0  0  0  0  0  0
   -4.0130    1.2795    0.0000 C   0  0  0  0  0  0  0  0  0  0  0  0
   -3.2569   -0.0160    0.0000 C   0  0  0  0  0  0  0  0  0  0  0  0
   -1.7569   -0.0090    0.0000 C   0  0  0  0  0  0  0  0  0  0  0  0
   -1.0130    1.2936    0.0000 C   0  0  0  0  0  0  0  0  0  0  0  0
   -1.7691    2.5891    0.0000 C   0  0  0  0  0  0  0  0  0  0  0  0
   -3.2691    2.5820    0.0000 C   0  0  0  0  0  0  0  0  0  0  0  0
   -1.0008   -1.3045    0.0000 O   0  0  0  0  0  0  0  0  0  0  0  0
   -4.0007   -1.3186    0.0000 O   0  0  0  0  0  0  0  0  0  0  0  0
    0.6480   -1.0369    0.0000 H   0  0  0  0  0  0  0  0  0  0  0  0
  1  2  2  0  0  0  0
  1  6  1  0  0  0  0
  2  3  1  0  0  0  0
  3  4  2  0  0  0  0
  4  5  1  0  0  0  0
  5  6  2  0  0  0  0
  5 11  1  0  0  0  0
  6  7  1  0  0  0  0
  7  8  2  0  0  0  0
  8  9  1  0  0  0  0
  9 10  2  0  0  0  0
  9 11  1  0  0  0  0
  1 12  1  0  0  0  0
 13 14  1  0  0  0  0
 14 15  1  0  0  0  0
 14 16  1  6  0  0  0
 16 17  1  0  0  0  0
 16 18  1  0  0  0  0
 16 19  1  0  0  0  0
  2 15  1  0  0  0  0
  3 13  1  0  0  0  0
 21 20  1  6  0  0  0
 21 22  1  0  0  0  0
 21 26  1  0  0  0  0
 22 23  1  0  0  0  0
 22 31  1  1  0  0  0
 23 24  1  0  0  0  0
 23 30  1  6  0  0  0
 24 25  1  0  0  0  0
 24 29  1  1  0  0  0
 25 26  1  0  0  0  0
 25 27  1  6  0  0  0
 27 28  1  0  0  0  0
  4 20  1  0  0  0  0
 32 33  1  0  0  0  0
 33 34  1  0  0  0  0
 34 35  2  0  0  0  0
 34 39  1  0  0  0  0
 35 36  1  0  0  0  0
 35 41  1  0  0  0  0
 36 37  2  0  0  0  0
 36 40  1  0  0  0  0
 37 38  1  0  0  0  0
 38 39  2  0  0  0  0
  8 37  1  0  0  0  0
  7 42  1  0  0  0  0
M  END
> <score_Kier2>
0.516493

$$$$
suggested molecule #12
 MOE2019            2D

 42 46  0  0  1  0  0  0  0  0999 V2000
    3.4992   -1.2833    0.0000 C   0  0  0  0  0  0  0  0  0  1  0  0
    4.9992   -1.2762    0.0000 C   0  0  0  0  0  0  0  0  0  2  0  0
    5.7430    0.0263    0.0000 C   0  0  0  0  0  0  0  0  0  3  0  0
    4.9869    1.3218    0.0000 C   0  0  0  0  0  0  0  0  0  4  0  0
    3.4870    1.3147    0.0000 C   0  0  0  0  0  0  0  0  0  5  0  0
    2.7431    0.0122    0.0000 C   0  0  0  0  0  0  0  0  0  6  0  0
    1.2431    0.0051    0.0000 C   0  0  0  0  0  0  0  0  0  7  0  0
    0.4870    1.3006    0.0000 C   0  0  0  0  0  0  0  0  0  8  0  0
    1.2309    2.6032    0.0000 C   0  0  0  0  0  0  0  0  0  9  0  0
    0.4748    3.8987    0.0000 O   0  0  0  0  0  0  0  0  0 10  0  0
    2.7309    2.6102    0.0000 O   0  0  0  0  0  0  0  0  0 11  0  0
    2.9041   -2.3253    0.0000 H   0  0  0  0  0  0  0  0  0  0  0  0
    7.2117   -0.2787    0.0000 O   0  0  0  0  0  0  0  0  0  0  0  0
    7.3755   -1.7697    0.0000 C   0  0  1  0  0  0  0  0  0  0  0  0
    6.0081   -2.3862    0.0000 C   0  0  0  0  0  0  0  0  0  0  0  0
    8.6781   -2.5136    0.0000 C   0  0  0  0  0  0  0  0  0  0  0  0
    9.4220   -1.2110    0.0000 C   0  0  0  0  0  0  0  0  0  0  0  0
    9.9806   -3.2575    0.0000 C   0  0  0  0  0  0  0  0  0  0  0  0
    7.9342   -3.8161    0.0000 O   0  0  0  0  0  0  0  0  0  0  0  0
    5.7308    2.6244    0.0000 O   0  0  0  0  0  0  0  0  0  0  0  0
    7.2308    2.6314    0.0000 C   0  0  1  0  0  0  0  0  0  0  0  0
    7.9747    3.9340    0.0000 C   0  0  1  0  0  0  0  0  0  0  0  0
    9.4747    3.9410    0.0000 C   0  0  2  0  0  0  0  0  0  0  0  0
   10.2308    2.6455    0.0000 C   0  0  1  0  0  0  0  0  0  0  0  0
    9.4869    1.3430    0.0000 C   0  0  2  0  0  0  0  0  0  0  0  0
    7.9869    1.3359    0.0000 O   0  0  0  0  0  0  0  0  0  0  0  0
   10.2430    0.0475    0.0000 C   0  0  0  0  0  0  0  0  0  0  0  0
   11.7430    0.0545    0.0000 O   0  0  0  0  0  0  0  0  0  0  0  0
   11.7308    2.6526    0.0000 O   0  0  0  0  0  0  0  0  0  0  0  0
   10.2186    5.2436    0.0000 O   0  0  0  0  0  0  0  0  0  0  0  0
    7.2186    5.2295    0.0000 O   0  0  0  0  0  0  0  0  0  0  0  0
   -6.2690    2.5679    0.0000 C   0  0  0  0  0  0  0  0  0  0  0  0
   -5.5129    1.2724    0.0000 O   0  0  0  0  0  0  0  0  0  0  0  0
   -4.0130    1.2795    0.0000 C   0  0  0  0  0  0  0  0  0  0  0  0
   -3.2569   -0.0160    0.0000 C   0  0  0  0  0  0  0  0  0  0  0  0
   -1.7569   -0.0090    0.0000 C   0  0  0  0  0  0  0  0  0  0  0  0
   -1.0130    1.2936    0.0000 C   0  0  0  0  0  0  0  0  0  0  0  0
   -1.7691    2.5891    0.0000 C   0  0  0  0  0  0  0  0  0  0  0  0
   -3.2691    2.5820    0.0000 C   0  0  0  0  0  0  0  0  0  0  0  0
   -1.0008   -1.3045    0.0000 O   0  0  0  0  0  0  0  0  0  0  0  0
   -1.7447   -2.6070    0.0000 C   0  0  0  0  0  0  0  0  0  0  0  0
    0.6480   -1.0369    0.0000 H   0  0  0  0  0  0  0  0  0  0  0  0
  1  2  2  0  0  0  0
  1  6  1  0  0  0  0
  2  3  1  0  0  0  0
  3  4  2  0  0  0  0
  4  5  1  0  0  0  0
  5  6  2  0  0  0  0
  5 11  1  0  0  0  0
  6  7  1  0  0  0  0
  7  8  2  0  0  0  0
  8  9  1  0  0  0  0
  9 10  2  0  0  0  0
  9 11  1  0  0  0  0
  1 12  1  0  0  0  0
 13 14  1  0  0  0  0
 14 15  1  0  0  0  0
 14 16  1  6  0  0  0
 16 17  1  0  0  0  0
 16 18  1  0  0  0  0
 16 19  1  0  0  0  0
  2 15  1  0  0  0  0
  3 13  1  0  0  0  0
 21 20  1  6  0  0  0
 21 22  1  0  0  0  0
 21 26  1  0  0  0  0
 22 23  1  0  0  0  0
 22 31  1  1  0  0  0
 23 24  1  0  0  0  0
 23 30  1  6  0  0  0
 24 25  1  0  0  0  0
 24 29  1  1  0  0  0
 25 26  1  0  0  0  0
 25 27  1  6  0  0  0
 27 28  1  0  0  0  0
  4 20  1  0  0  0  0
 32 33  1  0  0  0  0
 33 34  1  0  0  0  0
 34 35  1  0  0  0  0
 34 39  2  0  0  0  0
 35 36  2  0  0  0  0
 36 37  1  0  0  0  0
 36 40  1  0  0  0  0
 37 38  2  0  0  0  0
 38 39  1  0  0  0  0
 40 41  1  0  0  0  0
  8 37  1  0  0  0  0
  7 42  1  0  0  0  0
M  END
> <score_Kier1>
0.517696

$$$$
suggested molecule #13
 MOE2019            2D

 42 46  0  0  1  0  0  0  0  0999 V2000
    3.4992   -1.2833    0.0000 C   0  0  0  0  0  0  0  0  0  1  0  0
    4.9992   -1.2762    0.0000 C   0  0  0  0  0  0  0  0  0  2  0  0
    5.7430    0.0263    0.0000 C   0  0  0  0  0  0  0  0  0  3  0  0
    4.9869    1.3218    0.0000 C   0  0  0  0  0  0  0  0  0  4  0  0
    3.4870    1.3147    0.0000 C   0  0  0  0  0  0  0  0  0  5  0  0
    2.7431    0.0122    0.0000 C   0  0  0  0  0  0  0  0  0  6  0  0
    1.2431    0.0051    0.0000 C   0  0  0  0  0  0  0  0  0  7  0  0
    0.4870    1.3006    0.0000 C   0  0  0  0  0  0  0  0  0  8  0  0
    1.2309    2.6032    0.0000 C   0  0  0  0  0  0  0  0  0  9  0  0
    0.4748    3.8987    0.0000 O   0  0  0  0  0  0  0  0  0 10  0  0
    2.7309    2.6102    0.0000 O   0  0  0  0  0  0  0  0  0 11  0  0
    2.9041   -2.3253    0.0000 H   0  0  0  0  0  0  0  0  0  0  0  0
    7.2117   -0.2787    0.0000 O   0  0  0  0  0  0  0  0  0  0  0  0
    7.3755   -1.7697    0.0000 C   0  0  1  0  0  0  0  0  0  0  0  0
    6.0081   -2.3862    0.0000 C   0  0  0  0  0  0  0  0  0  0  0  0
    8.6781   -2.5136    0.0000 C   0  0  0  0  0  0  0  0  0  0  0  0
    9.4220   -1.2110    0.0000 C   0  0  0  0  0  0  0  0  0  0  0  0
    9.9806   -3.2575    0.0000 C   0  0  0  0  0  0  0  0  0  0  0  0
    7.9342   -3.8161    0.0000 O   0  0  0  0  0  0  0  0  0  0  0  0
    5.7308    2.6244    0.0000 O   0  0  0  0  0  0  0  0  0  0  0  0
    7.2308    2.6314    0.0000 C   0  0  1  0  0  0  0  0  0  0  0  0
    7.9747    3.9340    0.0000 C   0  0  1  0  0  0  0  0  0  0  0  0
    9.4747    3.9410    0.0000 C   0  0  2  0  0  0  0  0  0  0  0  0
   10.2308    2.6455    0.0000 C   0  0  1  0  0  0  0  0  0  0  0  0
    9.4869    1.3430    0.0000 C   0  0  2  0  0  0  0  0  0  0  0  0
    7.9869    1.3359    0.0000 O   0  0  0  0  0  0  0  0  0  0  0  0
   10.2430    0.0475    0.0000 C   0  0  0  0  0  0  0  0  0  0  0  0
   11.7430    0.0545    0.0000 O   0  0  0  0  0  0  0  0  0  0  0  0
   11.7308    2.6526    0.0000 O   0  0  0  0  0  0  0  0  0  0  0  0
   10.2186    5.2436    0.0000 O   0  0  0  0  0  0  0  0  0  0  0  0
    7.2186    5.2295    0.0000 O   0  0  0  0  0  0  0  0  0  0  0  0
   -6.2690    2.5679    0.0000 C   0  0  0  0  0  0  0  0  0  0  0  0
   -5.5129    1.2724    0.0000 O   0  0  0  0  0  0  0  0  0  0  0  0
   -4.0130    1.2795    0.0000 C   0  0  0  0  0  0  0  0  0  0  0  0
   -3.2569   -0.0160    0.0000 C   0  0  0  0  0  0  0  0  0  0  0  0
   -1.7569   -0.0090    0.0000 C   0  0  0  0  0  0  0  0  0  0  0  0
   -1.0130    1.2936    0.0000 C   0  0  0  0  0  0  0  0  0  0  0  0
   -1.7691    2.5891    0.0000 C   0  0  0  0  0  0  0  0  0  0  0  0
   -3.2691    2.5820    0.0000 C   0  0  0  0  0  0  0  0  0  0  0  0
   -1.0008   -1.3045    0.0000 O   0  0  0  0  0  0  0  0  0  0  0  0
   -1.7447   -2.6070    0.0000 C   0  0  0  0  0  0  0  0  0  0  0  0
    0.6480   -1.0369    0.0000 H   0  0  0  0  0  0  0  0  0  0  0  0
  1  2  2  0  0  0  0
  1  6  1  0  0  0  0
  2  3  1  0  0  0  0
  3  4  2  0  0  0  0
  4  5  1  0  0  0  0
  5  6  2  0  0  0  0
  5 11  1  0  0  0  0
  6  7  1  0  0  0  0
  7  8  2  0  0  0  0
  8  9  1  0  0  0  0
  9 10  2  0  0  0  0
  9 11  1  0  0  0  0
  1 12  1  0  0  0  0
 13 14  1  0  0  0  0
 14 15  1  0  0  0  0
 14 16  1  6  0  0  0
 16 17  1  0  0  0  0
 16 18  1  0  0  0  0
 16 19  1  0  0  0  0
  2 15  1  0  0  0  0
  3 13  1  0  0  0  0
 21 20  1  6  0  0  0
 21 22  1  0  0  0  0
 21 26  1  0  0  0  0
 22 23  1  0  0  0  0
 22 31  1  1  0  0  0
 23 24  1  0  0  0  0
 23 30  1  6  0  0  0
 24 25  1  0  0  0  0
 24 29  1  1  0  0  0
 25 26  1  0  0  0  0
 25 27  1  6  0  0  0
 27 28  1  0  0  0  0
  4 20  1  0  0  0  0
 32 33  1  0  0  0  0
 33 34  1  0  0  0  0
 34 35  1  0  0  0  0
 34 39  2  0  0  0  0
 35 36  2  0  0  0  0
 36 37  1  0  0  0  0
 36 40  1  0  0  0  0
 37 38  2  0  0  0  0
 38 39  1  0  0  0  0
 40 41  1  0  0  0  0
  8 37  1  0  0  0  0
  7 42  1  0  0  0  0
M  END
> <score_Kier2>
0.516486

$$$$
suggested molecule #14
 MOE2019            2D

 38 42  0  0  1  0  0  0  0  0999 V2000
    3.4992   -1.2833    0.0000 C   0  0  0  0  0  0  0  0  0  1  0  0
    4.9992   -1.2762    0.0000 C   0  0  0  0  0  0  0  0  0  2  0  0
    5.7430    0.0263    0.0000 C   0  0  0  0  0  0  0  0  0  3  0  0
    4.9869    1.3218    0.0000 C   0  0  0  0  0  0  0  0  0  4  0  0
    3.4870    1.3147    0.0000 C   0  0  0  0  0  0  0  0  0  5  0  0
    2.7431    0.0122    0.0000 C   0  0  0  0  0  0  0  0  0  6  0  0
    1.2431    0.0051    0.0000 C   0  0  0  0  0  0  0  0  0  7  0  0
    0.4870    1.3006    0.0000 C   0  0  0  0  0  0  0  0  0  8  0  0
    1.2309    2.6032    0.0000 C   0  0  0  0  0  0  0  0  0  9  0  0
    0.4748    3.8987    0.0000 O   0  0  0  0  0  0  0  0  0 10  0  0
    2.7309    2.6102    0.0000 O   0  0  0  0  0  0  0  0  0 11  0  0
    2.9041   -2.3253    0.0000 H   0  0  0  0  0  0  0  0  0  0  0  0
    7.2117   -0.2787    0.0000 O   0  0  0  0  0  0  0  0  0  0  0  0
    7.3755   -1.7697    0.0000 C   0  0  1  0  0  0  0  0  0  0  0  0
    6.0081   -2.3862    0.0000 C   0  0  0  0  0  0  0  0  0  0  0  0
    8.6781   -2.5136    0.0000 C   0  0  0  0  0  0  0  0  0  0  0  0
    7.9342   -3.8161    0.0000 C   0  0  0  0  0  0  0  0  0  0  0  0
    9.4220   -1.2110    0.0000 C   0  0  0  0  0  0  0  0  0  0  0  0
    9.9806   -3.2575    0.0000 O   0  0  0  0  0  0  0  0  0  0  0  0
    5.7308    2.6244    0.0000 O   0  0  0  0  0  0  0  0  0  0  0  0
    7.2308    2.6314    0.0000 C   0  0  1  0  0  0  0  0  0  0  0  0
    7.9747    3.9340    0.0000 C   0  0  1  0  0  0  0  0  0  0  0  0
    9.4747    3.9410    0.0000 C   0  0  2  0  0  0  0  0  0  0  0  0
   10.2308    2.6455    0.0000 C   0  0  1  0  0  0  0  0  0  0  0  0
    9.4869    1.3430    0.0000 C   0  0  2  0  0  0  0  0  0  0  0  0
    7.9869    1.3359    0.0000 O   0  0  0  0  0  0  0  0  0  0  0  0
   10.2430    0.0475    0.0000 C   0  0  0  0  0  0  0  0  0  0  0  0
   11.7430    0.0545    0.0000 O   0  0  0  0  0  0  0  0  0  0  0  0
   11.7308    2.6526    0.0000 O   0  0  0  0  0  0  0  0  0  0  0  0
   10.2186    5.2436    0.0000 O   0  0  0  0  0  0  0  0  0  0  0  0
    7.2186    5.2295    0.0000 O   0  0  0  0  0  0  0  0  0  0  0  0
   -4.0130    1.2795    0.0000 C   0  0  0  0  0  0  0  0  0  0  0  0
   -3.2569   -0.0160    0.0000 C   0  0  0  0  0  0  0  0  0  0  0  0
   -1.7569   -0.0090    0.0000 C   0  0  0  0  0  0  0  0  0  0  0  0
   -1.0130    1.2936    0.0000 C   0  0  0  0  0  0  0  0  0  0  0  0
   -1.7691    2.5891    0.0000 C   0  0  0  0  0  0  0  0  0  0  0  0
   -3.2691    2.5820    0.0000 C   0  0  0  0  0  0  0  0  0  0  0  0
    0.6480   -1.0369    0.0000 H   0  0  0  0  0  0  0  0  0  0  0  0
  1  2  2  0  0  0  0
  1  6  1  0  0  0  0
  2  3  1  0  0  0  0
  3  4  2  0  0  0  0
  4  5  1  0  0  0  0
  5  6  2  0  0  0  0
  5 11  1  0  0  0  0
  6  7  1  0  0  0  0
  7  8  2  0  0  0  0
  8  9  1  0  0  0  0
  9 10  2  0  0  0  0
  9 11  1  0  0  0  0
  1 12  1  0  0  0  0
 13 14  1  0  0  0  0
 14 15  1  0  0  0  0
 14 16  1  6  0  0  0
 16 17  1  0  0  0  0
 16 18  1  0  0  0  0
 16 19  1  0  0  0  0
  2 15  1  0  0  0  0
  3 13  1  0  0  0  0
 21 20  1  6  0  0  0
 21 22  1  0  0  0  0
 21 26  1  0  0  0  0
 22 23  1  0  0  0  0
 22 31  1  1  0  0  0
 23 24  1  0  0  0  0
 23 30  1  6  0  0  0
 24 25  1  0  0  0  0
 24 29  1  1  0  0  0
 25 26  1  0  0  0  0
 25 27  1  6  0  0  0
 27 28  1  0  0  0  0
  4 20  1  0  0  0  0
 32 33  2  0  0  0  0
 32 37  1  0  0  0  0
 33 34  1  0  0  0  0
 34 35  2  0  0  0  0
 35 36  1  0  0  0  0
 36 37  2  0  0  0  0
  8 35  1  0  0  0  0
  7 38  1  0  0  0  0
M  END
> <score_Kier1>
0.517719

$$$$
suggested molecule #15
 MOE2019            2D

 38 42  0  0  1  0  0  0  0  0999 V2000
    3.4992   -1.2833    0.0000 C   0  0  0  0  0  0  0  0  0  1  0  0
    4.9992   -1.2762    0.0000 C   0  0  0  0  0  0  0  0  0  2  0  0
    5.7430    0.0263    0.0000 C   0  0  0  0  0  0  0  0  0  3  0  0
    4.9869    1.3218    0.0000 C   0  0  0  0  0  0  0  0  0  4  0  0
    3.4870    1.3147    0.0000 C   0  0  0  0  0  0  0  0  0  5  0  0
    2.7431    0.0122    0.0000 C   0  0  0  0  0  0  0  0  0  6  0  0
    1.2431    0.0051    0.0000 C   0  0  0  0  0  0  0  0  0  7  0  0
    0.4870    1.3006    0.0000 C   0  0  0  0  0  0  0  0  0  8  0  0
    1.2309    2.6032    0.0000 C   0  0  0  0  0  0  0  0  0  9  0  0
    0.4748    3.8987    0.0000 O   0  0  0  0  0  0  0  0  0 10  0  0
    2.7309    2.6102    0.0000 O   0  0  0  0  0  0  0  0  0 11  0  0
    2.9041   -2.3253    0.0000 H   0  0  0  0  0  0  0  0  0  0  0  0
    7.2117   -0.2787    0.0000 O   0  0  0  0  0  0  0  0  0  0  0  0
    7.3755   -1.7697    0.0000 C   0  0  1  0  0  0  0  0  0  0  0  0
    6.0081   -2.3862    0.0000 C   0  0  0  0  0  0  0  0  0  0  0  0
    8.6781   -2.5136    0.0000 C   0  0  0  0  0  0  0  0  0  0  0  0
    7.9342   -3.8161    0.0000 C   0  0  0  0  0  0  0  0  0  0  0  0
    9.4220   -1.2110    0.0000 C   0  0  0  0  0  0  0  0  0  0  0  0
    9.9806   -3.2575    0.0000 O   0  0  0  0  0  0  0  0  0  0  0  0
    5.7308    2.6244    0.0000 O   0  0  0  0  0  0  0  0  0  0  0  0
    7.2308    2.6314    0.0000 C   0  0  1  0  0  0  0  0  0  0  0  0
    7.9747    3.9340    0.0000 C   0  0  1  0  0  0  0  0  0  0  0  0
    9.4747    3.9410    0.0000 C   0  0  2  0  0  0  0  0  0  0  0  0
   10.2308    2.6455    0.0000 C   0  0  1  0  0  0  0  0  0  0  0  0
    9.4869    1.3430    0.0000 C   0  0  2  0  0  0  0  0  0  0  0  0
    7.9869    1.3359    0.0000 O   0  0  0  0  0  0  0  0  0  0  0  0
   10.2430    0.0475    0.0000 C   0  0  0  0  0  0  0  0  0  0  0  0
   11.7430    0.0545    0.0000 O   0  0  0  0  0  0  0  0  0  0  0  0
   11.7308    2.6526    0.0000 O   0  0  0  0  0  0  0  0  0  0  0  0
   10.2186    5.2436    0.0000 O   0  0  0  0  0  0  0  0  0  0  0  0
    7.2186    5.2295    0.0000 O   0  0  0  0  0  0  0  0  0  0  0  0
   -4.0130    1.2795    0.0000 C   0  0  0  0  0  0  0  0  0  0  0  0
   -3.2569   -0.0160    0.0000 C   0  0  0  0  0  0  0  0  0  0  0  0
   -1.7569   -0.0090    0.0000 C   0  0  0  0  0  0  0  0  0  0  0  0
   -1.0130    1.2936    0.0000 C   0  0  0  0  0  0  0  0  0  0  0  0
   -1.7691    2.5891    0.0000 C   0  0  0  0  0  0  0  0  0  0  0  0
   -3.2691    2.5820    0.0000 C   0  0  0  0  0  0  0  0  0  0  0  0
    0.6480   -1.0369    0.0000 H   0  0  0  0  0  0  0  0  0  0  0  0
  1  2  2  0  0  0  0
  1  6  1  0  0  0  0
  2  3  1  0  0  0  0
  3  4  2  0  0  0  0
  4  5  1  0  0  0  0
  5  6  2  0  0  0  0
  5 11  1  0  0  0  0
  6  7  1  0  0  0  0
  7  8  2  0  0  0  0
  8  9  1  0  0  0  0
  9 10  2  0  0  0  0
  9 11  1  0  0  0  0
  1 12  1  0  0  0  0
 13 14  1  0  0  0  0
 14 15  1  0  0  0  0
 14 16  1  6  0  0  0
 16 17  1  0  0  0  0
 16 18  1  0  0  0  0
 16 19  1  0  0  0  0
  2 15  1  0  0  0  0
  3 13  1  0  0  0  0
 21 20  1  6  0  0  0
 21 22  1  0  0  0  0
 21 26  1  0  0  0  0
 22 23  1  0  0  0  0
 22 31  1  1  0  0  0
 23 24  1  0  0  0  0
 23 30  1  6  0  0  0
 24 25  1  0  0  0  0
 24 29  1  1  0  0  0
 25 26  1  0  0  0  0
 25 27  1  6  0  0  0
 27 28  1  0  0  0  0
  4 20  1  0  0  0  0
 32 33  2  0  0  0  0
 32 37  1  0  0  0  0
 33 34  1  0  0  0  0
 34 35  2  0  0  0  0
 35 36  1  0  0  0  0
 36 37  2  0  0  0  0
  8 35  1  0  0  0  0
  7 38  1  0  0  0  0
M  END
> <score_Kier2>
0.516504

$$$$
suggested molecule #16
 MOE2019            2D

 44 48  0  0  1  0  0  0  0  0999 V2000
    3.4992   -1.2833    0.0000 C   0  0  0  0  0  0  0  0  0  1  0  0
    4.9992   -1.2762    0.0000 C   0  0  0  0  0  0  0  0  0  2  0  0
    5.7430    0.0263    0.0000 C   0  0  0  0  0  0  0  0  0  3  0  0
    4.9869    1.3218    0.0000 C   0  0  0  0  0  0  0  0  0  4  0  0
    3.4870    1.3147    0.0000 C   0  0  0  0  0  0  0  0  0  5  0  0
    2.7431    0.0122    0.0000 C   0  0  0  0  0  0  0  0  0  6  0  0
    1.2431    0.0051    0.0000 C   0  0  0  0  0  0  0  0  0  7  0  0
    0.4870    1.3006    0.0000 C   0  0  0  0  0  0  0  0  0  8  0  0
    1.2309    2.6032    0.0000 C   0  0  0  0  0  0  0  0  0  9  0  0
    0.4748    3.8987    0.0000 O   0  0  0  0  0  0  0  0  0 10  0  0
    2.7309    2.6102    0.0000 O   0  0  0  0  0  0  0  0  0 11  0  0
    2.9041   -2.3253    0.0000 H   0  0  0  0  0  0  0  0  0  0  0  0
    7.2117   -0.2787    0.0000 O   0  0  0  0  0  0  0  0  0  0  0  0
    7.3755   -1.7697    0.0000 C   0  0  1  0  0  0  0  0  0  0  0  0
    6.0081   -2.3862    0.0000 C   0  0  0  0  0  0  0  0  0  0  0  0
    8.6781   -2.5136    0.0000 C   0  0  0  0  0  0  0  0  0  0  0  0
    9.4220   -1.2110    0.0000 C   0  0  0  0  0  0  0  0  0  0  0  0
    9.9806   -3.2575    0.0000 C   0  0  0  0  0  0  0  0  0  0  0  0
    7.9342   -3.8161    0.0000 O   0  0  0  0  0  0  0  0  0  0  0  0
    5.7308    2.6244    0.0000 O   0  0  0  0  0  0  0  0  0  0  0  0
    7.2308    2.6314    0.0000 C   0  0  1  0  0  0  0  0  0  0  0  0
    7.9747    3.9340    0.0000 C   0  0  1  0  0  0  0  0  0  0  0  0
    9.4747    3.9410    0.0000 C   0  0  2  0  0  0  0  0  0  0  0  0
   10.2308    2.6455    0.0000 C   0  0  1  0  0  0  0  0  0  0  0  0
    9.4869    1.3430    0.0000 C   0  0  2  0  0  0  0  0  0  0  0  0
    7.9869    1.3359    0.0000 O   0  0  0  0  0  0  0  0  0  0  0  0
   10.2430    0.0475    0.0000 C   0  0  0  0  0  0  0  0  0  0  0  0
   11.7430    0.0545    0.0000 O   0  0  0  0  0  0  0  0  0  0  0  0
   11.7308    2.6526    0.0000 O   0  0  0  0  0  0  0  0  0  0  0  0
   10.2186    5.2436    0.0000 O   0  0  0  0  0  0  0  0  0  0  0  0
    7.2186    5.2295    0.0000 O   0  0  0  0  0  0  0  0  0  0  0  0
   -7.7446   -2.6352    0.0000 C   0  0  0  0  0  0  0  0  0  0  0  0
   -6.2446   -2.6282    0.0000 C   0  0  0  0  0  0  0  0  0  0  0  0
   -5.5007   -1.3256    0.0000 C   0  0  0  0  0  0  0  0  0  0  0  0
   -4.0007   -1.3186    0.0000 C   0  0  0  0  0  0  0  0  0  0  0  0
   -3.2569   -0.0160    0.0000 C   0  0  0  0  0  0  0  0  0  0  0  0
   -4.0130    1.2795    0.0000 C   0  0  0  0  0  0  0  0  0  0  0  0
   -3.2691    2.5820    0.0000 C   0  0  0  0  0  0  0  0  0  0  0  0
   -1.7691    2.5891    0.0000 C   0  0  0  0  0  0  0  0  0  0  0  0
   -1.0130    1.2936    0.0000 C   0  0  0  0  0  0  0  0  0  0  0  0
   -1.7569   -0.0090    0.0000 C   0  0  0  0  0  0  0  0  0  0  0  0
   -5.5129    1.2724    0.0000 O   0  0  0  0  0  0  0  0  0  0  0  0
   -5.4885   -3.9237    0.0000 C   0  0  0  0  0  0  0  0  0  0  0  0
    0.6480   -1.0369    0.0000 H   0  0  0  0  0  0  0  0  0  0  0  0
  1  2  2  0  0  0  0
  1  6  1  0  0  0  0
  2  3  1  0  0  0  0
  3  4  2  0  0  0  0
  4  5  1  0  0  0  0
  5  6  2  0  0  0  0
  5 11  1  0  0  0  0
  6  7  1  0  0  0  0
  7  8  2  0  0  0  0
  8  9  1  0  0  0  0
  9 10  2  0  0  0  0
  9 11  1  0  0  0  0
  1 12  1  0  0  0  0
 13 14  1  0  0  0  0
 14 15  1  0  0  0  0
 14 16  1  6  0  0  0
 16 17  1  0  0  0  0
 16 18  1  0  0  0  0
 16 19  1  0  0  0  0
  2 15  1  0  0  0  0
  3 13  1  0  0  0  0
 21 20  1  6  0  0  0
 21 22  1  0  0  0  0
 21 26  1  0  0  0  0
 22 23  1  0  0  0  0
 22 31  1  1  0  0  0
 23 24  1  0  0  0  0
 23 30  1  6  0  0  0
 24 25  1  0  0  0  0
 24 29  1  1  0  0  0
 25 26  1  0  0  0  0
 25 27  1  6  0  0  0
 27 28  1  0  0  0  0
  4 20  1  0  0  0  0
 32 33  1  0  0  0  0
 33 34  2  0  0  0  0
 33 43  1  0  0  0  0
 34 35  1  0  0  0  0
 35 36  1  0  0  0  0
 36 37  1  0  0  0  0
 36 41  2  0  0  0  0
 37 38  2  0  0  0  0
 37 42  1  0  0  0  0
 38 39  1  0  0  0  0
 39 40  2  0  0  0  0
 40 41  1  0  0  0  0
  8 40  1  0  0  0  0
  7 44  1  0  0  0  0
M  END
> <score_Kier2>
0.516474

$$$$
suggested molecule #17
 MOE2019            2D

 37 40  0  0  1  0  0  0  0  0999 V2000
    3.4992   -1.2833    0.0000 C   0  0  0  0  0  0  0  0  0  1  0  0
    4.9992   -1.2762    0.0000 C   0  0  0  0  0  0  0  0  0  2  0  0
    5.7430    0.0263    0.0000 C   0  0  0  0  0  0  0  0  0  3  0  0
    4.9869    1.3218    0.0000 C   0  0  0  0  0  0  0  0  0  4  0  0
    3.4870    1.3147    0.0000 C   0  0  0  0  0  0  0  0  0  5  0  0
    2.7431    0.0122    0.0000 C   0  0  0  0  0  0  0  0  0  6  0  0
    1.2431    0.0051    0.0000 C   0  0  0  0  0  0  0  0  0  7  0  0
    0.4870    1.3006    0.0000 C   0  0  0  0  0  0  0  0  0  8  0  0
    1.2309    2.6032    0.0000 C   0  0  0  0  0  0  0  0  0  9  0  0
    0.4748    3.8987    0.0000 O   0  0  0  0  0  0  0  0  0 10  0  0
    2.7309    2.6102    0.0000 O   0  0  0  0  0  0  0  0  0 11  0  0
    2.9041   -2.3253    0.0000 H   0  0  0  0  0  0  0  0  0  0  0  0
    7.2117   -0.2787    0.0000 O   0  0  0  0  0  0  0  0  0  0  0  0
    7.3755   -1.7697    0.0000 C   0  0  1  0  0  0  0  0  0  0  0  0
    6.0081   -2.3862    0.0000 C   0  0  0  0  0  0  0  0  0  0  0  0
    8.6781   -2.5136    0.0000 C   0  0  0  0  0  0  0  0  0  0  0  0
    9.4220   -1.2110    0.0000 C   0  0  0  0  0  0  0  0  0  0  0  0
    9.9806   -3.2575    0.0000 C   0  0  0  0  0  0  0  0  0  0  0  0
    7.9342   -3.8161    0.0000 O   0  0  0  0  0  0  0  0  0  0  0  0
    5.7308    2.6244    0.0000 O   0  0  0  0  0  0  0  0  0  0  0  0
    7.2308    2.6314    0.0000 C   0  0  1  0  0  0  0  0  0  0  0  0
    7.9747    3.9340    0.0000 C   0  0  1  0  0  0  0  0  0  0  0  0
    9.4747    3.9410    0.0000 C   0  0  2  0  0  0  0  0  0  0  0  0
   10.2308    2.6455    0.0000 C   0  0  1  0  0  0  0  0  0  0  0  0
    9.4869    1.3430    0.0000 C   0  0  2  0  0  0  0  0  0  0  0  0
    7.9869    1.3359    0.0000 O   0  0  0  0  0  0  0  0  0  0  0  0
   10.2430    0.0475    0.0000 C   0  0  0  0  0  0  0  0  0  0  0  0
   11.7430    0.0545    0.0000 O   0  0  0  0  0  0  0  0  0  0  0  0
   11.7308    2.6526    0.0000 O   0  0  0  0  0  0  0  0  0  0  0  0
   10.2186    5.2436    0.0000 O   0  0  0  0  0  0  0  0  0  0  0  0
    7.2186    5.2295    0.0000 O   0  0  0  0  0  0  0  0  0  0  0  0
   -1.0130    1.2936    0.0000 C   0  0  0  0  0  0  0  0  0  0  0  0
   -1.0059   -0.2064    0.0000 C   0  0  0  0  0  0  0  0  0  0  0  0
   -1.0200    2.7936    0.0000 C   0  0  0  0  0  0  0  0  0  0  0  0
   -2.5130    1.2865    0.0000 C   0  0  0  0  0  0  0  0  0  0  0  0
   -3.2569   -0.0160    0.0000 C   0  0  0  0  0  0  0  0  0  0  0  0
    0.6480   -1.0369    0.0000 H   0  0  0  0  0  0  0  0  0  0  0  0
  1  2  2  0  0  0  0
  1  6  1  0  0  0  0
  2  3  1  0  0  0  0
  3  4  2  0  0  0  0
  4  5  1  0  0  0  0
  5  6  2  0  0  0  0
  5 11  1  0  0  0  0
  6  7  1  0  0  0  0
  7  8  2  0  0  0  0
  8  9  1  0  0  0  0
  9 10  2  0  0  0  0
  9 11  1  0  0  0  0
  1 12  1  0  0  0  0
 13 14  1  0  0  0  0
 14 15  1  0  0  0  0
 14 16  1  6  0  0  0
 16 17  1  0  0  0  0
 16 18  1  0  0  0  0
 16 19  1  0  0  0  0
  2 15  1  0  0  0  0
  3 13  1  0  0  0  0
 21 20  1  6  0  0  0
 21 22  1  0  0  0  0
 21 26  1  0  0  0  0
 22 23  1  0  0  0  0
 22 31  1  1  0  0  0
 23 24  1  0  0  0  0
 23 30  1  6  0  0  0
 24 25  1  0  0  0  0
 24 29  1  1  0  0  0
 25 26  1  0  0  0  0
 25 27  1  6  0  0  0
 27 28  1  0  0  0  0
  4 20  1  0  0  0  0
 32 33  1  0  0  0  0
 32 34  1  0  0  0  0
 32 35  1  0  0  0  0
 35 36  2  0  0  0  0
  8 32  1  0  0  0  0
  7 37  1  0  0  0  0
M  END
> <score_Kier2>
0.516509

$$$$
suggested molecule #18
 MOE2019            2D

 43 48  0  0  1  0  0  0  0  0999 V2000
    3.4992   -1.2833    0.0000 C   0  0  0  0  0  0  0  0  0  1  0  0
    4.9992   -1.2762    0.0000 C   0  0  0  0  0  0  0  0  0  2  0  0
    5.7430    0.0263    0.0000 C   0  0  0  0  0  0  0  0  0  3  0  0
    4.9869    1.3218    0.0000 C   0  0  0  0  0  0  0  0  0  4  0  0
    3.4870    1.3147    0.0000 C   0  0  0  0  0  0  0  0  0  5  0  0
    2.7431    0.0122    0.0000 C   0  0  0  0  0  0  0  0  0  6  0  0
    1.2431    0.0051    0.0000 C   0  0  0  0  0  0  0  0  0  7  0  0
    0.4870    1.3006    0.0000 C   0  0  0  0  0  0  0  0  0  8  0  0
    1.2309    2.6032    0.0000 C   0  0  0  0  0  0  0  0  0  9  0  0
    0.4748    3.8987    0.0000 O   0  0  0  0  0  0  0  0  0 10  0  0
    2.7309    2.6102    0.0000 O   0  0  0  0  0  0  0  0  0 11  0  0
    2.9041   -2.3253    0.0000 H   0  0  0  0  0  0  0  0  0  0  0  0
    7.2117   -0.2787    0.0000 O   0  0  0  0  0  0  0  0  0  0  0  0
    7.3755   -1.7697    0.0000 C   0  0  1  0  0  0  0  0  0  0  0  0
    6.0081   -2.3862    0.0000 C   0  0  0  0  0  0  0  0  0  0  0  0
    8.6781   -2.5136    0.0000 C   0  0  0  0  0  0  0  0  0  0  0  0
    7.9342   -3.8161    0.0000 C   0  0  0  0  0  0  0  0  0  0  0  0
    9.9806   -3.2575    0.0000 C   0  0  0  0  0  0  0  0  0  0  0  0
    9.4220   -1.2110    0.0000 O   0  0  0  0  0  0  0  0  0  0  0  0
    5.7308    2.6244    0.0000 O   0  0  0  0  0  0  0  0  0  0  0  0
    7.2308    2.6314    0.0000 C   0  0  1  0  0  0  0  0  0  0  0  0
    7.9747    3.9340    0.0000 C   0  0  1  0  0  0  0  0  0  0  0  0
    9.4747    3.9410    0.0000 C   0  0  2  0  0  0  0  0  0  0  0  0
   10.2308    2.6455    0.0000 C   0  0  1  0  0  0  0  0  0  0  0  0
    9.4869    1.3430    0.0000 C   0  0  2  0  0  0  0  0  0  0  0  0
    7.9869    1.3359    0.0000 O   0  0  0  0  0  0  0  0  0  0  0  0
   10.2430    0.0475    0.0000 C   0  0  0  0  0  0  0  0  0  0  0  0
   11.7430    0.0545    0.0000 O   0  0  0  0  0  0  0  0  0  0  0  0
   11.7308    2.6526    0.0000 O   0  0  0  0  0  0  0  0  0  0  0  0
   10.2186    5.2436    0.0000 O   0  0  0  0  0  0  0  0  0  0  0  0
    7.2186    5.2295    0.0000 O   0  0  0  0  0  0  0  0  0  0  0  0
   -1.0130    1.2936    0.0000 C   0  0  0  0  0  0  0  0  0  0  0  0
   -1.7691    2.5891    0.0000 C   0  0  0  0  0  0  0  0  0  0  0  0
   -3.2691    2.5820    0.0000 C   0  0  0  0  0  0  0  0  0  0  0  0
   -4.0130    1.2795    0.0000 C   0  0  0  0  0  0  0  0  0  0  0  0
   -3.2569   -0.0160    0.0000 C   0  0  0  0  0  0  0  0  0  0  0  0
   -1.7569   -0.0090    0.0000 C   0  0  0  0  0  0  0  0  0  0  0  0
   -1.0008   -1.3045    0.0000 O   0  0  0  0  0  0  0  0  0  0  0  0
    0.4992   -1.2974    0.0000 C   0  0  0  0  0  0  0  0  0  0  0  0
   -5.5129    1.2724    0.0000 O   0  0  0  0  0  0  0  0  0  0  0  0
   -6.2568   -0.0301    0.0000 C   0  0  0  0  0  0  0  0  0  0  0  0
   -4.0252    3.8775    0.0000 O   0  0  0  0  0  0  0  0  0  0  0  0
   -3.2813    5.1801    0.0000 C   0  0  0  0  0  0  0  0  0  0  0  0
  1  2  2  0  0  0  0
  1  6  1  0  0  0  0
  2  3  1  0  0  0  0
  3  4  2  0  0  0  0
  4  5  1  0  0  0  0
  5  6  2  0  0  0  0
  5 11  1  0  0  0  0
  6  7  1  0  0  0  0
  7  8  2  0  0  0  0
  8  9  1  0  0  0  0
  9 10  2  0  0  0  0
  9 11  1  0  0  0  0
  1 12  1  0  0  0  0
 13 14  1  0  0  0  0
 14 15  1  0  0  0  0
 14 16  1  6  0  0  0
 16 17  1  0  0  0  0
 16 18  1  0  0  0  0
 16 19  1  0  0  0  0
  2 15  1  0  0  0  0
  3 13  1  0  0  0  0
 21 20  1  6  0  0  0
 21 22  1  0  0  0  0
 21 26  1  0  0  0  0
 22 23  1  0  0  0  0
 22 31  1  1  0  0  0
 23 24  1  0  0  0  0
 23 30  1  6  0  0  0
 24 25  1  0  0  0  0
 24 29  1  1  0  0  0
 25 26  1  0  0  0  0
 25 27  1  6  0  0  0
 27 28  1  0  0  0  0
  4 20  1  0  0  0  0
 32 33  1  0  0  0  0
 32 37  2  0  0  0  0
 33 34  2  0  0  0  0
 34 35  1  0  0  0  0
 34 42  1  0  0  0  0
 35 36  2  0  0  0  0
 35 40  1  0  0  0  0
 36 37  1  0  0  0  0
 37 38  1  0  0  0  0
 38 39  1  0  0  0  0
 40 41  1  0  0  0  0
 42 43  1  0  0  0  0
  7 39  1  0  0  0  0
  8 32  1  0  0  0  0
M  END
> <score_Kier2>
0.516464

$$$$
suggested molecule #19
 MOE2019            2D

 40 44  0  0  1  0  0  0  0  0999 V2000
    3.4992   -1.2833    0.0000 C   0  0  0  0  0  0  0  0  0  1  0  0
    4.9992   -1.2762    0.0000 C   0  0  0  0  0  0  0  0  0  2  0  0
    5.7430    0.0263    0.0000 C   0  0  0  0  0  0  0  0  0  3  0  0
    4.9869    1.3218    0.0000 C   0  0  0  0  0  0  0  0  0  4  0  0
    3.4870    1.3147    0.0000 C   0  0  0  0  0  0  0  0  0  5  0  0
    2.7431    0.0122    0.0000 C   0  0  0  0  0  0  0  0  0  6  0  0
    1.2431    0.0051    0.0000 C   0  0  0  0  0  0  0  0  0  7  0  0
    0.4870    1.3006    0.0000 C   0  0  0  0  0  0  0  0  0  8  0  0
    1.2309    2.6032    0.0000 C   0  0  0  0  0  0  0  0  0  9  0  0
    0.4748    3.8987    0.0000 O   0  0  0  0  0  0  0  0  0 10  0  0
    2.7309    2.6102    0.0000 O   0  0  0  0  0  0  0  0  0 11  0  0
    2.9041   -2.3253    0.0000 H   0  0  0  0  0  0  0  0  0  0  0  0
    7.2117   -0.2787    0.0000 O   0  0  0  0  0  0  0  0  0  0  0  0
    7.3755   -1.7697    0.0000 C   0  0  1  0  0  0  0  0  0  0  0  0
    6.0081   -2.3862    0.0000 C   0  0  0  0  0  0  0  0  0  0  0  0
    8.6781   -2.5136    0.0000 C   0  0  0  0  0  0  0  0  0  0  0  0
    7.9342   -3.8161    0.0000 C   0  0  0  0  0  0  0  0  0  0  0  0
    9.9806   -3.2575    0.0000 C   0  0  0  0  0  0  0  0  0  0  0  0
    9.4220   -1.2110    0.0000 O   0  0  0  0  0  0  0  0  0  0  0  0
    5.7308    2.6244    0.0000 O   0  0  0  0  0  0  0  0  0  0  0  0
    7.2308    2.6314    0.0000 C   0  0  1  0  0  0  0  0  0  0  0  0
    7.9747    3.9340    0.0000 C   0  0  1  0  0  0  0  0  0  0  0  0
    9.4747    3.9410    0.0000 C   0  0  2  0  0  0  0  0  0  0  0  0
   10.2308    2.6455    0.0000 C   0  0  1  0  0  0  0  0  0  0  0  0
    9.4869    1.3430    0.0000 C   0  0  2  0  0  0  0  0  0  0  0  0
    7.9869    1.3359    0.0000 O   0  0  0  0  0  0  0  0  0  0  0  0
   10.2430    0.0475    0.0000 C   0  0  0  0  0  0  0  0  0  0  0  0
   11.7430    0.0545    0.0000 O   0  0  0  0  0  0  0  0  0  0  0  0
   11.7308    2.6526    0.0000 O   0  0  0  0  0  0  0  0  0  0  0  0
   10.2186    5.2436    0.0000 O   0  0  0  0  0  0  0  0  0  0  0  0
    7.2186    5.2295    0.0000 O   0  0  0  0  0  0  0  0  0  0  0  0
   -1.0130    1.2936    0.0000 C   0  0  0  0  0  0  0  0  0  0  0  0
   -1.7569   -0.0090    0.0000 C   0  0  0  0  0  0  0  0  0  0  0  0
   -3.2569   -0.0160    0.0000 C   0  0  0  0  0  0  0  0  0  0  0  0
   -4.0130    1.2795    0.0000 C   0  0  0  0  0  0  0  0  0  0  0  0
   -3.2691    2.5820    0.0000 C   0  0  0  0  0  0  0  0  0  0  0  0
   -1.7691    2.5891    0.0000 C   0  0  0  0  0  0  0  0  0  0  0  0
   -5.5129    1.2724    0.0000 O   0  0  0  0  0  0  0  0  0  0  0  0
   -1.0008   -1.3045    0.0000 O   0  0  0  0  0  0  0  0  0  0  0  0
    0.6480   -1.0369    0.0000 H   0  0  0  0  0  0  0  0  0  0  0  0
  1  2  2  0  0  0  0
  1  6  1  0  0  0  0
  2  3  1  0  0  0  0
  3  4  2  0  0  0  0
  4  5  1  0  0  0  0
  5  6  2  0  0  0  0
  5 11  1  0  0  0  0
  6  7  1  0  0  0  0
  7  8  2  0  0  0  0
  8  9  1  0  0  0  0
  9 10  2  0  0  0  0
  9 11  1  0  0  0  0
  1 12  1  0  0  0  0
 13 14  1  0  0  0  0
 14 15  1  0  0  0  0
 14 16  1  6  0  0  0
 16 17  1  0  0  0  0
 16 18  1  0  0  0  0
 16 19  1  0  0  0  0
  2 15  1  0  0  0  0
  3 13  1  0  0  0  0
 21 20  1  6  0  0  0
 21 22  1  0  0  0  0
 21 26  1  0  0  0  0
 22 23  1  0  0  0  0
 22 31  1  1  0  0  0
 23 24  1  0  0  0  0
 23 30  1  6  0  0  0
 24 25  1  0  0  0  0
 24 29  1  1  0  0  0
 25 26  1  0  0  0  0
 25 27  1  6  0  0  0
 27 28  1  0  0  0  0
  4 20  1  0  0  0  0
 32 33  1  0  0  0  0
 32 37  2  0  0  0  0
 33 34  2  0  0  0  0
 33 39  1  0  0  0  0
 34 35  1  0  0  0  0
 35 36  2  0  0  0  0
 35 38  1  0  0  0  0
 36 37  1  0  0  0  0
  8 32  1  0  0  0  0
  7 40  1  0  0  0  0
M  END
> <score_Kier2>
0.516458

$$$$
suggested molecule #20
 MOE2019            2D

 36 39  0  0  1  0  0  0  0  0999 V2000
    3.4992   -1.2833    0.0000 C   0  0  0  0  0  0  0  0  0  1  0  0
    4.9992   -1.2762    0.0000 C   0  0  0  0  0  0  0  0  0  2  0  0
    5.7430    0.0263    0.0000 C   0  0  0  0  0  0  0  0  0  3  0  0
    4.9869    1.3218    0.0000 C   0  0  0  0  0  0  0  0  0  4  0  0
    3.4870    1.3147    0.0000 C   0  0  0  0  0  0  0  0  0  5  0  0
    2.7431    0.0122    0.0000 C   0  0  0  0  0  0  0  0  0  6  0  0
    1.2431    0.0051    0.0000 C   0  0  0  0  0  0  0  0  0  7  0  0
    0.4870    1.3006    0.0000 C   0  0  0  0  0  0  0  0  0  8  0  0
    1.2309    2.6032    0.0000 C   0  0  0  0  0  0  0  0  0  9  0  0
    0.4748    3.8987    0.0000 O   0  0  0  0  0  0  0  0  0 10  0  0
    2.7309    2.6102    0.0000 O   0  0  0  0  0  0  0  0  0 11  0  0
    2.9041   -2.3253    0.0000 H   0  0  0  0  0  0  0  0  0  0  0  0
    7.2117   -0.2787    0.0000 O   0  0  0  0  0  0  0  0  0  0  0  0
    7.3755   -1.7697    0.0000 C   0  0  1  0  0  0  0  0  0  0  0  0
    6.0081   -2.3862    0.0000 C   0  0  0  0  0  0  0  0  0  0  0  0
    8.6781   -2.5136    0.0000 C   0  0  0  0  0  0  0  0  0  0  0  0
    9.9806   -3.2575    0.0000 C   0  0  0  0  0  0  0  0  0  0  0  0
    9.4220   -1.2110    0.0000 C   0  0  0  0  0  0  0  0  0  0  0  0
    7.9342   -3.8161    0.0000 O   0  0  0  0  0  0  0  0  0  0  0  0
    5.7308    2.6244    0.0000 O   0  0  0  0  0  0  0  0  0  0  0  0
    7.2308    2.6314    0.0000 C   0  0  1  0  0  0  0  0  0  0  0  0
    7.9747    3.9340    0.0000 C   0  0  1  0  0  0  0  0  0  0  0  0
    9.4747    3.9410    0.0000 C   0  0  2  0  0  0  0  0  0  0  0  0
   10.2308    2.6455    0.0000 C   0  0  1  0  0  0  0  0  0  0  0  0
    9.4869    1.3430    0.0000 C   0  0  2  0  0  0  0  0  0  0  0  0
    7.9869    1.3359    0.0000 O   0  0  0  0  0  0  0  0  0  0  0  0
   10.2430    0.0475    0.0000 C   0  0  0  0  0  0  0  0  0  0  0  0
   11.7430    0.0545    0.0000 O   0  0  0  0  0  0  0  0  0  0  0  0
   11.7308    2.6526    0.0000 O   0  0  0  0  0  0  0  0  0  0  0  0
   10.2186    5.2436    0.0000 O   0  0  0  0  0  0  0  0  0  0  0  0
    7.2186    5.2295    0.0000 O   0  0  0  0  0  0  0  0  0  0  0  0
   -0.7130    1.2950    0.0000 H   0  0  0  0  0  0  0  0  0  0  0  0
    0.4992   -1.2974    0.0000 C   0  0  0  0  0  0  0  0  0  0  0  0
   -1.0008   -1.3045    0.0000 C   0  0  0  0  0  0  0  0  0  0  0  0
   -1.7447   -2.6070    0.0000 O   0  0  0  0  0  0  0  0  0  0  0  0
   -1.7569   -0.0090    0.0000 C   0  0  0  0  0  0  0  0  0  0  0  0
  1  2  2  0  0  0  0
  1  6  1  0  0  0  0
  2  3  1  0  0  0  0
  3  4  2  0  0  0  0
  4  5  1  0  0  0  0
  5  6  2  0  0  0  0
  5 11  1  0  0  0  0
  6  7  1  0  0  0  0
  7  8  2  0  0  0  0
  8  9  1  0  0  0  0
  9 10  2  0  0  0  0
  9 11  1  0  0  0  0
  1 12  1  0  0  0  0
 13 14  1  0  0  0  0
 14 15  1  0  0  0  0
 14 16  1  6  0  0  0
 16 17  1  0  0  0  0
 16 18  1  0  0  0  0
 16 19  1  0  0  0  0
  2 15  1  0  0  0  0
  3 13  1  0  0  0  0
 21 20  1  6  0  0  0
 21 22  1  0  0  0  0
 21 26  1  0  0  0  0
 22 23  1  0  0  0  0
 22 31  1  1  0  0  0
 23 24  1  0  0  0  0
 23 30  1  6  0  0  0
 24 25  1  0  0  0  0
 24 29  1  1  0  0  0
 25 26  1  0  0  0  0
 25 27  1  6  0  0  0
 27 28  1  0  0  0  0
  4 20  1  0  0  0  0
  8 32  1  0  0  0  0
 33 34  1  0  0  0  0
 34 35  2  0  0  0  0
 34 36  1  0  0  0  0
  7 33  1  0  0  0  0
M  END
> <score_Kier3>
0.511491

$$$$
suggested molecule #21
 MOE2019            2D

 36 39  0  0  1  0  0  0  0  0999 V2000
    3.4992   -1.2833    0.0000 C   0  0  0  0  0  0  0  0  0  1  0  0
    4.9992   -1.2762    0.0000 C   0  0  0  0  0  0  0  0  0  2  0  0
    5.7430    0.0263    0.0000 C   0  0  0  0  0  0  0  0  0  3  0  0
    4.9869    1.3218    0.0000 C   0  0  0  0  0  0  0  0  0  4  0  0
    3.4870    1.3147    0.0000 C   0  0  0  0  0  0  0  0  0  5  0  0
    2.7431    0.0122    0.0000 C   0  0  0  0  0  0  0  0  0  6  0  0
    1.2431    0.0051    0.0000 C   0  0  0  0  0  0  0  0  0  7  0  0
    0.4870    1.3006    0.0000 C   0  0  0  0  0  0  0  0  0  8  0  0
    1.2309    2.6032    0.0000 C   0  0  0  0  0  0  0  0  0  9  0  0
    0.4748    3.8987    0.0000 O   0  0  0  0  0  0  0  0  0 10  0  0
    2.7309    2.6102    0.0000 O   0  0  0  0  0  0  0  0  0 11  0  0
    2.9041   -2.3253    0.0000 H   0  0  0  0  0  0  0  0  0  0  0  0
    7.2117   -0.2787    0.0000 O   0  0  0  0  0  0  0  0  0  0  0  0
    7.3755   -1.7697    0.0000 C   0  0  1  0  0  0  0  0  0  0  0  0
    6.0081   -2.3862    0.0000 C   0  0  0  0  0  0  0  0  0  0  0  0
    8.6781   -2.5136    0.0000 C   0  0  0  0  0  0  0  0  0  0  0  0
    9.9806   -3.2575    0.0000 C   0  0  0  0  0  0  0  0  0  0  0  0
    9.4220   -1.2110    0.0000 C   0  0  0  0  0  0  0  0  0  0  0  0
    7.9342   -3.8161    0.0000 O   0  0  0  0  0  0  0  0  0  0  0  0
    5.7308    2.6244    0.0000 O   0  0  0  0  0  0  0  0  0  0  0  0
    7.2308    2.6314    0.0000 C   0  0  1  0  0  0  0  0  0  0  0  0
    7.9747    3.9340    0.0000 C   0  0  1  0  0  0  0  0  0  0  0  0
    9.4747    3.9410    0.0000 C   0  0  2  0  0  0  0  0  0  0  0  0
   10.2308    2.6455    0.0000 C   0  0  1  0  0  0  0  0  0  0  0  0
    9.4869    1.3430    0.0000 C   0  0  2  0  0  0  0  0  0  0  0  0
    7.9869    1.3359    0.0000 O   0  0  0  0  0  0  0  0  0  0  0  0
   10.2430    0.0475    0.0000 C   0  0  0  0  0  0  0  0  0  0  0  0
   11.7430    0.0545    0.0000 O   0  0  0  0  0  0  0  0  0  0  0  0
   11.7308    2.6526    0.0000 O   0  0  0  0  0  0  0  0  0  0  0  0
   10.2186    5.2436    0.0000 O   0  0  0  0  0  0  0  0  0  0  0  0
    7.2186    5.2295    0.0000 O   0  0  0  0  0  0  0  0  0  0  0  0
   -0.7130    1.2950    0.0000 H   0  0  0  0  0  0  0  0  0  0  0  0
    0.4992   -1.2974    0.0000 C   0  0  0  0  0  0  0  0  0  0  0  0
   -1.0008   -1.3045    0.0000 C   0  0  0  0  0  0  0  0  0  0  0  0
   -1.7447   -2.6070    0.0000 O   0  0  0  0  0  0  0  0  0  0  0  0
   -1.7569   -0.0090    0.0000 C   0  0  0  0  0  0  0  0  0  0  0  0
  1  2  2  0  0  0  0
  1  6  1  0  0  0  0
  2  3  1  0  0  0  0
  3  4  2  0  0  0  0
  4  5  1  0  0  0  0
  5  6  2  0  0  0  0
  5 11  1  0  0  0  0
  6  7  1  0  0  0  0
  7  8  2  0  0  0  0
  8  9  1  0  0  0  0
  9 10  2  0  0  0  0
  9 11  1  0  0  0  0
  1 12  1  0  0  0  0
 13 14  1  0  0  0  0
 14 15  1  0  0  0  0
 14 16  1  6  0  0  0
 16 17  1  0  0  0  0
 16 18  1  0  0  0  0
 16 19  1  0  0  0  0
  2 15  1  0  0  0  0
  3 13  1  0  0  0  0
 21 20  1  6  0  0  0
 21 22  1  0  0  0  0
 21 26  1  0  0  0  0
 22 23  1  0  0  0  0
 22 31  1  1  0  0  0
 23 24  1  0  0  0  0
 23 30  1  6  0  0  0
 24 25  1  0  0  0  0
 24 29  1  1  0  0  0
 25 26  1  0  0  0  0
 25 27  1  6  0  0  0
 27 28  1  0  0  0  0
  4 20  1  0  0  0  0
  8 32  1  0  0  0  0
 33 34  1  0  0  0  0
 34 35  2  0  0  0  0
 34 36  1  0  0  0  0
  7 33  1  0  0  0  0
M  END
> <score_KierFlex>
0.516278

$$$$
suggested molecule #22
 MOE2019            2D

 33 36  0  0  1  0  0  0  0  0999 V2000
    3.4992   -1.2833    0.0000 C   0  0  0  0  0  0  0  0  0  1  0  0
    4.9992   -1.2762    0.0000 C   0  0  0  0  0  0  0  0  0  2  0  0
    5.7430    0.0263    0.0000 C   0  0  0  0  0  0  0  0  0  3  0  0
    4.9869    1.3218    0.0000 C   0  0  0  0  0  0  0  0  0  4  0  0
    3.4870    1.3147    0.0000 C   0  0  0  0  0  0  0  0  0  5  0  0
    2.7431    0.0122    0.0000 C   0  0  0  0  0  0  0  0  0  6  0  0
    1.2431    0.0051    0.0000 C   0  0  0  0  0  0  0  0  0  7  0  0
    0.4870    1.3006    0.0000 C   0  0  0  0  0  0  0  0  0  8  0  0
    1.2309    2.6032    0.0000 C   0  0  0  0  0  0  0  0  0  9  0  0
    0.4748    3.8987    0.0000 O   0  0  0  0  0  0  0  0  0 10  0  0
    2.7309    2.6102    0.0000 O   0  0  0  0  0  0  0  0  0 11  0  0
    2.9041   -2.3253    0.0000 H   0  0  0  0  0  0  0  0  0  0  0  0
    7.2117   -0.2787    0.0000 O   0  0  0  0  0  0  0  0  0  0  0  0
    7.3755   -1.7697    0.0000 C   0  0  1  0  0  0  0  0  0  0  0  0
    6.0081   -2.3862    0.0000 C   0  0  0  0  0  0  0  0  0  0  0  0
    8.6781   -2.5136    0.0000 C   0  0  0  0  0  0  0  0  0  0  0  0
    7.9342   -3.8161    0.0000 C   0  0  0  0  0  0  0  0  0  0  0  0
    9.9806   -3.2575    0.0000 C   0  0  0  0  0  0  0  0  0  0  0  0
    9.4220   -1.2110    0.0000 O   0  0  0  0  0  0  0  0  0  0  0  0
    5.7308    2.6244    0.0000 O   0  0  0  0  0  0  0  0  0  0  0  0
    4.9747    3.9198    0.0000 C   0  0  1  0  0  0  0  0  0  0  0  0
    5.7186    5.2224    0.0000 C   0  0  1  0  0  0  0  0  0  0  0  0
    4.9625    6.5179    0.0000 C   0  0  2  0  0  0  0  0  0  0  0  0
    3.4625    6.5108    0.0000 C   0  0  1  0  0  0  0  0  0  0  0  0
    2.7186    5.2083    0.0000 C   0  0  2  0  0  0  0  0  0  0  0  0
    3.4747    3.9128    0.0000 O   0  0  0  0  0  0  0  0  0  0  0  0
    1.2187    5.2012    0.0000 C   0  0  0  0  0  0  0  0  0  0  0  0
    0.4625    6.4967    0.0000 O   0  0  0  0  0  0  0  0  0  0  0  0
    2.7064    7.8063    0.0000 O   0  0  0  0  0  0  0  0  0  0  0  0
    5.7064    7.8204    0.0000 O   0  0  0  0  0  0  0  0  0  0  0  0
    7.2186    5.2295    0.0000 O   0  0  0  0  0  0  0  0  0  0  0  0
   -0.7130    1.2950    0.0000 H   0  0  0  0  0  0  0  0  0  0  0  0
    0.4992   -1.2974    0.0000 C   0  0  0  0  0  0  0  0  0  0  0  0
  1  2  2  0  0  0  0
  1  6  1  0  0  0  0
  2  3  1  0  0  0  0
  3  4  2  0  0  0  0
  4  5  1  0  0  0  0
  5  6  2  0  0  0  0
  5 11  1  0  0  0  0
  6  7  1  0  0  0  0
  7  8  2  0  0  0  0
  8  9  1  0  0  0  0
  9 10  2  0  0  0  0
  9 11  1  0  0  0  0
  1 12  1  0  0  0  0
 13 14  1  0  0  0  0
 14 15  1  0  0  0  0
 14 16  1  6  0  0  0
 16 17  1  0  0  0  0
 16 18  1  0  0  0  0
 16 19  1  0  0  0  0
  2 15  1  0  0  0  0
  3 13  1  0  0  0  0
 21 20  1  6  0  0  0
 21 22  1  0  0  0  0
 21 26  1  0  0  0  0
 22 23  1  0  0  0  0
 22 31  1  1  0  0  0
 23 24  1  0  0  0  0
 23 30  1  6  0  0  0
 24 25  1  0  0  0  0
 24 29  1  1  0  0  0
 25 26  1  0  0  0  0
 25 27  1  6  0  0  0
 27 28  1  0  0  0  0
  4 20  1  0  0  0  0
  8 32  1  0  0  0  0
  7 33  1  0  0  0  0
M  END
> <score_Kier1>
0.518079

$$$$
suggested molecule #23
 MOE2019            2D

 33 36  0  0  1  0  0  0  0  0999 V2000
    3.4992   -1.2833    0.0000 C   0  0  0  0  0  0  0  0  0  1  0  0
    4.9992   -1.2762    0.0000 C   0  0  0  0  0  0  0  0  0  2  0  0
    5.7430    0.0263    0.0000 C   0  0  0  0  0  0  0  0  0  3  0  0
    4.9869    1.3218    0.0000 C   0  0  0  0  0  0  0  0  0  4  0  0
    3.4870    1.3147    0.0000 C   0  0  0  0  0  0  0  0  0  5  0  0
    2.7431    0.0122    0.0000 C   0  0  0  0  0  0  0  0  0  6  0  0
    1.2431    0.0051    0.0000 C   0  0  0  0  0  0  0  0  0  7  0  0
    0.4870    1.3006    0.0000 C   0  0  0  0  0  0  0  0  0  8  0  0
    1.2309    2.6032    0.0000 C   0  0  0  0  0  0  0  0  0  9  0  0
    0.4748    3.8987    0.0000 O   0  0  0  0  0  0  0  0  0 10  0  0
    2.7309    2.6102    0.0000 O   0  0  0  0  0  0  0  0  0 11  0  0
    2.9041   -2.3253    0.0000 H   0  0  0  0  0  0  0  0  0  0  0  0
    7.2117   -0.2787    0.0000 O   0  0  0  0  0  0  0  0  0  0  0  0
    7.3755   -1.7697    0.0000 C   0  0  1  0  0  0  0  0  0  0  0  0
    6.0081   -2.3862    0.0000 C   0  0  0  0  0  0  0  0  0  0  0  0
    8.6781   -2.5136    0.0000 C   0  0  0  0  0  0  0  0  0  0  0  0
    7.9342   -3.8161    0.0000 C   0  0  0  0  0  0  0  0  0  0  0  0
    9.9806   -3.2575    0.0000 C   0  0  0  0  0  0  0  0  0  0  0  0
    9.4220   -1.2110    0.0000 O   0  0  0  0  0  0  0  0  0  0  0  0
    5.7308    2.6244    0.0000 O   0  0  0  0  0  0  0  0  0  0  0  0
    4.9747    3.9198    0.0000 C   0  0  1  0  0  0  0  0  0  0  0  0
    5.7186    5.2224    0.0000 C   0  0  1  0  0  0  0  0  0  0  0  0
    4.9625    6.5179    0.0000 C   0  0  2  0  0  0  0  0  0  0  0  0
    3.4625    6.5108    0.0000 C   0  0  1  0  0  0  0  0  0  0  0  0
    2.7186    5.2083    0.0000 C   0  0  2  0  0  0  0  0  0  0  0  0
    3.4747    3.9128    0.0000 O   0  0  0  0  0  0  0  0  0  0  0  0
    1.2187    5.2012    0.0000 C   0  0  0  0  0  0  0  0  0  0  0  0
    0.4625    6.4967    0.0000 O   0  0  0  0  0  0  0  0  0  0  0  0
    2.7064    7.8063    0.0000 O   0  0  0  0  0  0  0  0  0  0  0  0
    5.7064    7.8204    0.0000 O   0  0  0  0  0  0  0  0  0  0  0  0
    7.2186    5.2295    0.0000 O   0  0  0  0  0  0  0  0  0  0  0  0
   -0.7130    1.2950    0.0000 H   0  0  0  0  0  0  0  0  0  0  0  0
    0.4992   -1.2974    0.0000 C   0  0  0  0  0  0  0  0  0  0  0  0
  1  2  2  0  0  0  0
  1  6  1  0  0  0  0
  2  3  1  0  0  0  0
  3  4  2  0  0  0  0
  4  5  1  0  0  0  0
  5  6  2  0  0  0  0
  5 11  1  0  0  0  0
  6  7  1  0  0  0  0
  7  8  2  0  0  0  0
  8  9  1  0  0  0  0
  9 10  2  0  0  0  0
  9 11  1  0  0  0  0
  1 12  1  0  0  0  0
 13 14  1  0  0  0  0
 14 15  1  0  0  0  0
 14 16  1  6  0  0  0
 16 17  1  0  0  0  0
 16 18  1  0  0  0  0
 16 19  1  0  0  0  0
  2 15  1  0  0  0  0
  3 13  1  0  0  0  0
 21 20  1  6  0  0  0
 21 22  1  0  0  0  0
 21 26  1  0  0  0  0
 22 23  1  0  0  0  0
 22 31  1  1  0  0  0
 23 24  1  0  0  0  0
 23 30  1  6  0  0  0
 24 25  1  0  0  0  0
 24 29  1  1  0  0  0
 25 26  1  0  0  0  0
 25 27  1  6  0  0  0
 27 28  1  0  0  0  0
  4 20  1  0  0  0  0
  8 32  1  0  0  0  0
  7 33  1  0  0  0  0
M  END
> <score_Kier2>
0.516855

$$$$
suggested molecule #24
 MOE2019            2D

 33 36  0  0  1  0  0  0  0  0999 V2000
    3.4992   -1.2833    0.0000 C   0  0  0  0  0  0  0  0  0  1  0  0
    4.9992   -1.2762    0.0000 C   0  0  0  0  0  0  0  0  0  2  0  0
    5.7430    0.0263    0.0000 C   0  0  0  0  0  0  0  0  0  3  0  0
    4.9869    1.3218    0.0000 C   0  0  0  0  0  0  0  0  0  4  0  0
    3.4870    1.3147    0.0000 C   0  0  0  0  0  0  0  0  0  5  0  0
    2.7431    0.0122    0.0000 C   0  0  0  0  0  0  0  0  0  6  0  0
    1.2431    0.0051    0.0000 C   0  0  0  0  0  0  0  0  0  7  0  0
    0.4870    1.3006    0.0000 C   0  0  0  0  0  0  0  0  0  8  0  0
    1.2309    2.6032    0.0000 C   0  0  0  0  0  0  0  0  0  9  0  0
    0.4748    3.8987    0.0000 O   0  0  0  0  0  0  0  0  0 10  0  0
    2.7309    2.6102    0.0000 O   0  0  0  0  0  0  0  0  0 11  0  0
    2.9041   -2.3253    0.0000 H   0  0  0  0  0  0  0  0  0  0  0  0
    7.2117   -0.2787    0.0000 O   0  0  0  0  0  0  0  0  0  0  0  0
    7.3755   -1.7697    0.0000 C   0  0  1  0  0  0  0  0  0  0  0  0
    6.0081   -2.3862    0.0000 C   0  0  0  0  0  0  0  0  0  0  0  0
    8.6781   -2.5136    0.0000 C   0  0  0  0  0  0  0  0  0  0  0  0
    7.9342   -3.8161    0.0000 C   0  0  0  0  0  0  0  0  0  0  0  0
    9.9806   -3.2575    0.0000 C   0  0  0  0  0  0  0  0  0  0  0  0
    9.4220   -1.2110    0.0000 O   0  0  0  0  0  0  0  0  0  0  0  0
    5.7308    2.6244    0.0000 O   0  0  0  0  0  0  0  0  0  0  0  0
    4.9747    3.9198    0.0000 C   0  0  1  0  0  0  0  0  0  0  0  0
    5.7186    5.2224    0.0000 C   0  0  1  0  0  0  0  0  0  0  0  0
    4.9625    6.5179    0.0000 C   0  0  2  0  0  0  0  0  0  0  0  0
    3.4625    6.5108    0.0000 C   0  0  1  0  0  0  0  0  0  0  0  0
    2.7186    5.2083    0.0000 C   0  0  2  0  0  0  0  0  0  0  0  0
    3.4747    3.9128    0.0000 O   0  0  0  0  0  0  0  0  0  0  0  0
    1.2187    5.2012    0.0000 C   0  0  0  0  0  0  0  0  0  0  0  0
    0.4625    6.4967    0.0000 O   0  0  0  0  0  0  0  0  0  0  0  0
    2.7064    7.8063    0.0000 O   0  0  0  0  0  0  0  0  0  0  0  0
    5.7064    7.8204    0.0000 O   0  0  0  0  0  0  0  0  0  0  0  0
    7.2186    5.2295    0.0000 O   0  0  0  0  0  0  0  0  0  0  0  0
   -0.7130    1.2950    0.0000 H   0  0  0  0  0  0  0  0  0  0  0  0
    0.4992   -1.2974    0.0000 C   0  0  0  0  0  0  0  0  0  0  0  0
  1  2  2  0  0  0  0
  1  6  1  0  0  0  0
  2  3  1  0  0  0  0
  3  4  2  0  0  0  0
  4  5  1  0  0  0  0
  5  6  2  0  0  0  0
  5 11  1  0  0  0  0
  6  7  1  0  0  0  0
  7  8  2  0  0  0  0
  8  9  1  0  0  0  0
  9 10  2  0  0  0  0
  9 11  1  0  0  0  0
  1 12  1  0  0  0  0
 13 14  1  0  0  0  0
 14 15  1  0  0  0  0
 14 16  1  6  0  0  0
 16 17  1  0  0  0  0
 16 18  1  0  0  0  0
 16 19  1  0  0  0  0
  2 15  1  0  0  0  0
  3 13  1  0  0  0  0
 21 20  1  6  0  0  0
 21 22  1  0  0  0  0
 21 26  1  0  0  0  0
 22 23  1  0  0  0  0
 22 31  1  1  0  0  0
 23 24  1  0  0  0  0
 23 30  1  6  0  0  0
 24 25  1  0  0  0  0
 24 29  1  1  0  0  0
 25 26  1  0  0  0  0
 25 27  1  6  0  0  0
 27 28  1  0  0  0  0
  4 20  1  0  0  0  0
  8 32  1  0  0  0  0
  7 33  1  0  0  0  0
M  END
> <score_Kier3>
0.511967

$$$$
suggested molecule #25
 MOE2019            2D

 33 36  0  0  1  0  0  0  0  0999 V2000
    3.4992   -1.2833    0.0000 C   0  0  0  0  0  0  0  0  0  1  0  0
    4.9992   -1.2762    0.0000 C   0  0  0  0  0  0  0  0  0  2  0  0
    5.7430    0.0263    0.0000 C   0  0  0  0  0  0  0  0  0  3  0  0
    4.9869    1.3218    0.0000 C   0  0  0  0  0  0  0  0  0  4  0  0
    3.4870    1.3147    0.0000 C   0  0  0  0  0  0  0  0  0  5  0  0
    2.7431    0.0122    0.0000 C   0  0  0  0  0  0  0  0  0  6  0  0
    1.2431    0.0051    0.0000 C   0  0  0  0  0  0  0  0  0  7  0  0
    0.4870    1.3006    0.0000 C   0  0  0  0  0  0  0  0  0  8  0  0
    1.2309    2.6032    0.0000 C   0  0  0  0  0  0  0  0  0  9  0  0
    0.4748    3.8987    0.0000 O   0  0  0  0  0  0  0  0  0 10  0  0
    2.7309    2.6102    0.0000 O   0  0  0  0  0  0  0  0  0 11  0  0
    2.9041   -2.3253    0.0000 H   0  0  0  0  0  0  0  0  0  0  0  0
    7.2117   -0.2787    0.0000 O   0  0  0  0  0  0  0  0  0  0  0  0
    7.3755   -1.7697    0.0000 C   0  0  1  0  0  0  0  0  0  0  0  0
    6.0081   -2.3862    0.0000 C   0  0  0  0  0  0  0  0  0  0  0  0
    8.6781   -2.5136    0.0000 C   0  0  0  0  0  0  0  0  0  0  0  0
    7.9342   -3.8161    0.0000 C   0  0  0  0  0  0  0  0  0  0  0  0
    9.9806   -3.2575    0.0000 C   0  0  0  0  0  0  0  0  0  0  0  0
    9.4220   -1.2110    0.0000 O   0  0  0  0  0  0  0  0  0  0  0  0
    5.7308    2.6244    0.0000 O   0  0  0  0  0  0  0  0  0  0  0  0
    4.9747    3.9198    0.0000 C   0  0  1  0  0  0  0  0  0  0  0  0
    5.7186    5.2224    0.0000 C   0  0  1  0  0  0  0  0  0  0  0  0
    4.9625    6.5179    0.0000 C   0  0  2  0  0  0  0  0  0  0  0  0
    3.4625    6.5108    0.0000 C   0  0  1  0  0  0  0  0  0  0  0  0
    2.7186    5.2083    0.0000 C   0  0  2  0  0  0  0  0  0  0  0  0
    3.4747    3.9128    0.0000 O   0  0  0  0  0  0  0  0  0  0  0  0
    1.2187    5.2012    0.0000 C   0  0  0  0  0  0  0  0  0  0  0  0
    0.4625    6.4967    0.0000 O   0  0  0  0  0  0  0  0  0  0  0  0
    2.7064    7.8063    0.0000 O   0  0  0  0  0  0  0  0  0  0  0  0
    5.7064    7.8204    0.0000 O   0  0  0  0  0  0  0  0  0  0  0  0
    7.2186    5.2295    0.0000 O   0  0  0  0  0  0  0  0  0  0  0  0
   -0.7130    1.2950    0.0000 H   0  0  0  0  0  0  0  0  0  0  0  0
    0.4992   -1.2974    0.0000 C   0  0  0  0  0  0  0  0  0  0  0  0
  1  2  2  0  0  0  0
  1  6  1  0  0  0  0
  2  3  1  0  0  0  0
  3  4  2  0  0  0  0
  4  5  1  0  0  0  0
  5  6  2  0  0  0  0
  5 11  1  0  0  0  0
  6  7  1  0  0  0  0
  7  8  2  0  0  0  0
  8  9  1  0  0  0  0
  9 10  2  0  0  0  0
  9 11  1  0  0  0  0
  1 12  1  0  0  0  0
 13 14  1  0  0  0  0
 14 15  1  0  0  0  0
 14 16  1  6  0  0  0
 16 17  1  0  0  0  0
 16 18  1  0  0  0  0
 16 19  1  0  0  0  0
  2 15  1  0  0  0  0
  3 13  1  0  0  0  0
 21 20  1  6  0  0  0
 21 22  1  0  0  0  0
 21 26  1  0  0  0  0
 22 23  1  0  0  0  0
 22 31  1  1  0  0  0
 23 24  1  0  0  0  0
 23 30  1  6  0  0  0
 24 25  1  0  0  0  0
 24 29  1  1  0  0  0
 25 26  1  0  0  0  0
 25 27  1  6  0  0  0
 27 28  1  0  0  0  0
  4 20  1  0  0  0  0
  8 32  1  0  0  0  0
  7 33  1  0  0  0  0
M  END
> <score_KierA1>
0.518023

$$$$
suggested molecule #26
 MOE2019            2D

 33 36  0  0  1  0  0  0  0  0999 V2000
    3.4992   -1.2833    0.0000 C   0  0  0  0  0  0  0  0  0  1  0  0
    4.9992   -1.2762    0.0000 C   0  0  0  0  0  0  0  0  0  2  0  0
    5.7430    0.0263    0.0000 C   0  0  0  0  0  0  0  0  0  3  0  0
    4.9869    1.3218    0.0000 C   0  0  0  0  0  0  0  0  0  4  0  0
    3.4870    1.3147    0.0000 C   0  0  0  0  0  0  0  0  0  5  0  0
    2.7431    0.0122    0.0000 C   0  0  0  0  0  0  0  0  0  6  0  0
    1.2431    0.0051    0.0000 C   0  0  0  0  0  0  0  0  0  7  0  0
    0.4870    1.3006    0.0000 C   0  0  0  0  0  0  0  0  0  8  0  0
    1.2309    2.6032    0.0000 C   0  0  0  0  0  0  0  0  0  9  0  0
    0.4748    3.8987    0.0000 O   0  0  0  0  0  0  0  0  0 10  0  0
    2.7309    2.6102    0.0000 O   0  0  0  0  0  0  0  0  0 11  0  0
    2.9041   -2.3253    0.0000 H   0  0  0  0  0  0  0  0  0  0  0  0
    7.2117   -0.2787    0.0000 O   0  0  0  0  0  0  0  0  0  0  0  0
    7.3755   -1.7697    0.0000 C   0  0  1  0  0  0  0  0  0  0  0  0
    6.0081   -2.3862    0.0000 C   0  0  0  0  0  0  0  0  0  0  0  0
    8.6781   -2.5136    0.0000 C   0  0  0  0  0  0  0  0  0  0  0  0
    7.9342   -3.8161    0.0000 C   0  0  0  0  0  0  0  0  0  0  0  0
    9.9806   -3.2575    0.0000 C   0  0  0  0  0  0  0  0  0  0  0  0
    9.4220   -1.2110    0.0000 O   0  0  0  0  0  0  0  0  0  0  0  0
    5.7308    2.6244    0.0000 O   0  0  0  0  0  0  0  0  0  0  0  0
    4.9747    3.9198    0.0000 C   0  0  1  0  0  0  0  0  0  0  0  0
    5.7186    5.2224    0.0000 C   0  0  1  0  0  0  0  0  0  0  0  0
    4.9625    6.5179    0.0000 C   0  0  2  0  0  0  0  0  0  0  0  0
    3.4625    6.5108    0.0000 C   0  0  1  0  0  0  0  0  0  0  0  0
    2.7186    5.2083    0.0000 C   0  0  2  0  0  0  0  0  0  0  0  0
    3.4747    3.9128    0.0000 O   0  0  0  0  0  0  0  0  0  0  0  0
    1.2187    5.2012    0.0000 C   0  0  0  0  0  0  0  0  0  0  0  0
    0.4625    6.4967    0.0000 O   0  0  0  0  0  0  0  0  0  0  0  0
    2.7064    7.8063    0.0000 O   0  0  0  0  0  0  0  0  0  0  0  0
    5.7064    7.8204    0.0000 O   0  0  0  0  0  0  0  0  0  0  0  0
    7.2186    5.2295    0.0000 O   0  0  0  0  0  0  0  0  0  0  0  0
   -0.7130    1.2950    0.0000 H   0  0  0  0  0  0  0  0  0  0  0  0
    0.4992   -1.2974    0.0000 C   0  0  0  0  0  0  0  0  0  0  0  0
  1  2  2  0  0  0  0
  1  6  1  0  0  0  0
  2  3  1  0  0  0  0
  3  4  2  0  0  0  0
  4  5  1  0  0  0  0
  5  6  2  0  0  0  0
  5 11  1  0  0  0  0
  6  7  1  0  0  0  0
  7  8  2  0  0  0  0
  8  9  1  0  0  0  0
  9 10  2  0  0  0  0
  9 11  1  0  0  0  0
  1 12  1  0  0  0  0
 13 14  1  0  0  0  0
 14 15  1  0  0  0  0
 14 16  1  6  0  0  0
 16 17  1  0  0  0  0
 16 18  1  0  0  0  0
 16 19  1  0  0  0  0
  2 15  1  0  0  0  0
  3 13  1  0  0  0  0
 21 20  1  6  0  0  0
 21 22  1  0  0  0  0
 21 26  1  0  0  0  0
 22 23  1  0  0  0  0
 22 31  1  1  0  0  0
 23 24  1  0  0  0  0
 23 30  1  6  0  0  0
 24 25  1  0  0  0  0
 24 29  1  1  0  0  0
 25 26  1  0  0  0  0
 25 27  1  6  0  0  0
 27 28  1  0  0  0  0
  4 20  1  0  0  0  0
  8 32  1  0  0  0  0
  7 33  1  0  0  0  0
M  END
> <score_KierA2>
0.517163

$$$$
suggested molecule #27
 MOE2019            2D

 33 36  0  0  1  0  0  0  0  0999 V2000
    3.4992   -1.2833    0.0000 C   0  0  0  0  0  0  0  0  0  1  0  0
    4.9992   -1.2762    0.0000 C   0  0  0  0  0  0  0  0  0  2  0  0
    5.7430    0.0263    0.0000 C   0  0  0  0  0  0  0  0  0  3  0  0
    4.9869    1.3218    0.0000 C   0  0  0  0  0  0  0  0  0  4  0  0
    3.4870    1.3147    0.0000 C   0  0  0  0  0  0  0  0  0  5  0  0
    2.7431    0.0122    0.0000 C   0  0  0  0  0  0  0  0  0  6  0  0
    1.2431    0.0051    0.0000 C   0  0  0  0  0  0  0  0  0  7  0  0
    0.4870    1.3006    0.0000 C   0  0  0  0  0  0  0  0  0  8  0  0
    1.2309    2.6032    0.0000 C   0  0  0  0  0  0  0  0  0  9  0  0
    0.4748    3.8987    0.0000 O   0  0  0  0  0  0  0  0  0 10  0  0
    2.7309    2.6102    0.0000 O   0  0  0  0  0  0  0  0  0 11  0  0
    2.9041   -2.3253    0.0000 H   0  0  0  0  0  0  0  0  0  0  0  0
    7.2117   -0.2787    0.0000 O   0  0  0  0  0  0  0  0  0  0  0  0
    7.3755   -1.7697    0.0000 C   0  0  1  0  0  0  0  0  0  0  0  0
    6.0081   -2.3862    0.0000 C   0  0  0  0  0  0  0  0  0  0  0  0
    8.6781   -2.5136    0.0000 C   0  0  0  0  0  0  0  0  0  0  0  0
    7.9342   -3.8161    0.0000 C   0  0  0  0  0  0  0  0  0  0  0  0
    9.9806   -3.2575    0.0000 C   0  0  0  0  0  0  0  0  0  0  0  0
    9.4220   -1.2110    0.0000 O   0  0  0  0  0  0  0  0  0  0  0  0
    5.7308    2.6244    0.0000 O   0  0  0  0  0  0  0  0  0  0  0  0
    4.9747    3.9198    0.0000 C   0  0  1  0  0  0  0  0  0  0  0  0
    5.7186    5.2224    0.0000 C   0  0  1  0  0  0  0  0  0  0  0  0
    4.9625    6.5179    0.0000 C   0  0  2  0  0  0  0  0  0  0  0  0
    3.4625    6.5108    0.0000 C   0  0  1  0  0  0  0  0  0  0  0  0
    2.7186    5.2083    0.0000 C   0  0  2  0  0  0  0  0  0  0  0  0
    3.4747    3.9128    0.0000 O   0  0  0  0  0  0  0  0  0  0  0  0
    1.2187    5.2012    0.0000 C   0  0  0  0  0  0  0  0  0  0  0  0
    0.4625    6.4967    0.0000 O   0  0  0  0  0  0  0  0  0  0  0  0
    2.7064    7.8063    0.0000 O   0  0  0  0  0  0  0  0  0  0  0  0
    5.7064    7.8204    0.0000 O   0  0  0  0  0  0  0  0  0  0  0  0
    7.2186    5.2295    0.0000 O   0  0  0  0  0  0  0  0  0  0  0  0
   -0.7130    1.2950    0.0000 H   0  0  0  0  0  0  0  0  0  0  0  0
    0.4992   -1.2974    0.0000 C   0  0  0  0  0  0  0  0  0  0  0  0
  1  2  2  0  0  0  0
  1  6  1  0  0  0  0
  2  3  1  0  0  0  0
  3  4  2  0  0  0  0
  4  5  1  0  0  0  0
  5  6  2  0  0  0  0
  5 11  1  0  0  0  0
  6  7  1  0  0  0  0
  7  8  2  0  0  0  0
  8  9  1  0  0  0  0
  9 10  2  0  0  0  0
  9 11  1  0  0  0  0
  1 12  1  0  0  0  0
 13 14  1  0  0  0  0
 14 15  1  0  0  0  0
 14 16  1  6  0  0  0
 16 17  1  0  0  0  0
 16 18  1  0  0  0  0
 16 19  1  0  0  0  0
  2 15  1  0  0  0  0
  3 13  1  0  0  0  0
 21 20  1  6  0  0  0
 21 22  1  0  0  0  0
 21 26  1  0  0  0  0
 22 23  1  0  0  0  0
 22 31  1  1  0  0  0
 23 24  1  0  0  0  0
 23 30  1  6  0  0  0
 24 25  1  0  0  0  0
 24 29  1  1  0  0  0
 25 26  1  0  0  0  0
 25 27  1  6  0  0  0
 27 28  1  0  0  0  0
  4 20  1  0  0  0  0
  8 32  1  0  0  0  0
  7 33  1  0  0  0  0
M  END
> <score_KierA3>
0.512609

$$$$
suggested molecule #28
 MOE2019            2D

 33 36  0  0  1  0  0  0  0  0999 V2000
    3.4992   -1.2833    0.0000 C   0  0  0  0  0  0  0  0  0  1  0  0
    4.9992   -1.2762    0.0000 C   0  0  0  0  0  0  0  0  0  2  0  0
    5.7430    0.0263    0.0000 C   0  0  0  0  0  0  0  0  0  3  0  0
    4.9869    1.3218    0.0000 C   0  0  0  0  0  0  0  0  0  4  0  0
    3.4870    1.3147    0.0000 C   0  0  0  0  0  0  0  0  0  5  0  0
    2.7431    0.0122    0.0000 C   0  0  0  0  0  0  0  0  0  6  0  0
    1.2431    0.0051    0.0000 C   0  0  0  0  0  0  0  0  0  7  0  0
    0.4870    1.3006    0.0000 C   0  0  0  0  0  0  0  0  0  8  0  0
    1.2309    2.6032    0.0000 C   0  0  0  0  0  0  0  0  0  9  0  0
    0.4748    3.8987    0.0000 O   0  0  0  0  0  0  0  0  0 10  0  0
    2.7309    2.6102    0.0000 O   0  0  0  0  0  0  0  0  0 11  0  0
    2.9041   -2.3253    0.0000 H   0  0  0  0  0  0  0  0  0  0  0  0
    7.2117   -0.2787    0.0000 O   0  0  0  0  0  0  0  0  0  0  0  0
    7.3755   -1.7697    0.0000 C   0  0  1  0  0  0  0  0  0  0  0  0
    6.0081   -2.3862    0.0000 C   0  0  0  0  0  0  0  0  0  0  0  0
    8.6781   -2.5136    0.0000 C   0  0  0  0  0  0  0  0  0  0  0  0
    7.9342   -3.8161    0.0000 C   0  0  0  0  0  0  0  0  0  0  0  0
    9.9806   -3.2575    0.0000 C   0  0  0  0  0  0  0  0  0  0  0  0
    9.4220   -1.2110    0.0000 O   0  0  0  0  0  0  0  0  0  0  0  0
    5.7308    2.6244    0.0000 O   0  0  0  0  0  0  0  0  0  0  0  0
    4.9747    3.9198    0.0000 C   0  0  1  0  0  0  0  0  0  0  0  0
    5.7186    5.2224    0.0000 C   0  0  1  0  0  0  0  0  0  0  0  0
    4.9625    6.5179    0.0000 C   0  0  2  0  0  0  0  0  0  0  0  0
    3.4625    6.5108    0.0000 C   0  0  1  0  0  0  0  0  0  0  0  0
    2.7186    5.2083    0.0000 C   0  0  2  0  0  0  0  0  0  0  0  0
    3.4747    3.9128    0.0000 O   0  0  0  0  0  0  0  0  0  0  0  0
    1.2187    5.2012    0.0000 C   0  0  0  0  0  0  0  0  0  0  0  0
    0.4625    6.4967    0.0000 O   0  0  0  0  0  0  0  0  0  0  0  0
    2.7064    7.8063    0.0000 O   0  0  0  0  0  0  0  0  0  0  0  0
    5.7064    7.8204    0.0000 O   0  0  0  0  0  0  0  0  0  0  0  0
    7.2186    5.2295    0.0000 O   0  0  0  0  0  0  0  0  0  0  0  0
   -0.7130    1.2950    0.0000 H   0  0  0  0  0  0  0  0  0  0  0  0
    0.4992   -1.2974    0.0000 C   0  0  0  0  0  0  0  0  0  0  0  0
  1  2  2  0  0  0  0
  1  6  1  0  0  0  0
  2  3  1  0  0  0  0
  3  4  2  0  0  0  0
  4  5  1  0  0  0  0
  5  6  2  0  0  0  0
  5 11  1  0  0  0  0
  6  7  1  0  0  0  0
  7  8  2  0  0  0  0
  8  9  1  0  0  0  0
  9 10  2  0  0  0  0
  9 11  1  0  0  0  0
  1 12  1  0  0  0  0
 13 14  1  0  0  0  0
 14 15  1  0  0  0  0
 14 16  1  6  0  0  0
 16 17  1  0  0  0  0
 16 18  1  0  0  0  0
 16 19  1  0  0  0  0
  2 15  1  0  0  0  0
  3 13  1  0  0  0  0
 21 20  1  6  0  0  0
 21 22  1  0  0  0  0
 21 26  1  0  0  0  0
 22 23  1  0  0  0  0
 22 31  1  1  0  0  0
 23 24  1  0  0  0  0
 23 30  1  6  0  0  0
 24 25  1  0  0  0  0
 24 29  1  1  0  0  0
 25 26  1  0  0  0  0
 25 27  1  6  0  0  0
 27 28  1  0  0  0  0
  4 20  1  0  0  0  0
  8 32  1  0  0  0  0
  7 33  1  0  0  0  0
M  END
> <score_KierFlex>
0.51683

$$$$
suggested molecule #29
 MOE2019            2D

 44 48  0  0  1  0  0  0  0  0999 V2000
    3.4992   -1.2833    0.0000 C   0  0  0  0  0  0  0  0  0  1  0  0
    4.9992   -1.2762    0.0000 C   0  0  0  0  0  0  0  0  0  2  0  0
    5.7430    0.0263    0.0000 C   0  0  0  0  0  0  0  0  0  3  0  0
    4.9869    1.3218    0.0000 C   0  0  0  0  0  0  0  0  0  4  0  0
    3.4870    1.3147    0.0000 C   0  0  0  0  0  0  0  0  0  5  0  0
    2.7431    0.0122    0.0000 C   0  0  0  0  0  0  0  0  0  6  0  0
    1.2431    0.0051    0.0000 C   0  0  0  0  0  0  0  0  0  7  0  0
    0.4870    1.3006    0.0000 C   0  0  0  0  0  0  0  0  0  8  0  0
    1.2309    2.6032    0.0000 C   0  0  0  0  0  0  0  0  0  9  0  0
    0.4748    3.8987    0.0000 O   0  0  0  0  0  0  0  0  0 10  0  0
    2.7309    2.6102    0.0000 O   0  0  0  0  0  0  0  0  0 11  0  0
    2.9041   -2.3253    0.0000 H   0  0  0  0  0  0  0  0  0  0  0  0
    7.2117   -0.2787    0.0000 O   0  0  0  0  0  0  0  0  0  0  0  0
    7.3755   -1.7697    0.0000 C   0  0  1  0  0  0  0  0  0  0  0  0
    6.0081   -2.3862    0.0000 C   0  0  0  0  0  0  0  0  0  0  0  0
    8.6781   -2.5136    0.0000 C   0  0  0  0  0  0  0  0  0  0  0  0
    9.4220   -1.2110    0.0000 C   0  0  0  0  0  0  0  0  0  0  0  0
    7.9342   -3.8161    0.0000 C   0  0  0  0  0  0  0  0  0  0  0  0
    9.9806   -3.2575    0.0000 O   0  0  0  0  0  0  0  0  0  0  0  0
    5.7308    2.6244    0.0000 O   0  0  0  0  0  0  0  0  0  0  0  0
    7.2308    2.6314    0.0000 C   0  0  1  0  0  0  0  0  0  0  0  0
    7.9747    3.9340    0.0000 C   0  0  1  0  0  0  0  0  0  0  0  0
    9.4747    3.9410    0.0000 C   0  0  2  0  0  0  0  0  0  0  0  0
   10.2308    2.6455    0.0000 C   0  0  1  0  0  0  0  0  0  0  0  0
    9.4869    1.3430    0.0000 C   0  0  2  0  0  0  0  0  0  0  0  0
    7.9869    1.3359    0.0000 O   0  0  0  0  0  0  0  0  0  0  0  0
   10.2430    0.0475    0.0000 C   0  0  0  0  0  0  0  0  0  0  0  0
   11.7430    0.0545    0.0000 O   0  0  0  0  0  0  0  0  0  0  0  0
   11.7308    2.6526    0.0000 O   0  0  0  0  0  0  0  0  0  0  0  0
   10.2186    5.2436    0.0000 O   0  0  0  0  0  0  0  0  0  0  0  0
    7.2186    5.2295    0.0000 O   0  0  0  0  0  0  0  0  0  0  0  0
   -0.7130    1.2950    0.0000 H   0  0  0  0  0  0  0  0  0  0  0  0
    0.4992   -1.2974    0.0000 O   0  0  0  0  0  0  0  0  0  0  0  0
   -1.0008   -1.3045    0.0000 C   0  0  1  0  0  0  0  0  0  0  0  0
   -1.7447   -2.6070    0.0000 C   0  0  1  0  0  0  0  0  0  0  0  0
   -3.2446   -2.6141    0.0000 C   0  0  2  0  0  0  0  0  0  0  0  0
   -4.0007   -1.3186    0.0000 C   0  0  1  0  0  0  0  0  0  0  0  0
   -3.2569   -0.0160    0.0000 C   0  0  2  0  0  0  0  0  0  0  0  0
   -1.7569   -0.0090    0.0000 O   0  0  0  0  0  0  0  0  0  0  0  0
   -4.0130    1.2795    0.0000 C   0  0  0  0  0  0  0  0  0  0  0  0
   -5.5129    1.2724    0.0000 O   0  0  0  0  0  0  0  0  0  0  0  0
   -5.5007   -1.3256    0.0000 O   0  0  0  0  0  0  0  0  0  0  0  0
   -3.9885   -3.9166    0.0000 O   0  0  0  0  0  0  0  0  0  0  0  0
   -0.9886   -3.9025    0.0000 O   0  0  0  0  0  0  0  0  0  0  0  0
  1  2  2  0  0  0  0
  1  6  1  0  0  0  0
  2  3  1  0  0  0  0
  3  4  2  0  0  0  0
  4  5  1  0  0  0  0
  5  6  2  0  0  0  0
  5 11  1  0  0  0  0
  6  7  1  0  0  0  0
  7  8  2  0  0  0  0
  8  9  1  0  0  0  0
  9 10  2  0  0  0  0
  9 11  1  0  0  0  0
  1 12  1  0  0  0  0
 13 14  1  0  0  0  0
 14 15  1  0  0  0  0
 14 16  1  6  0  0  0
 16 17  1  0  0  0  0
 16 18  1  0  0  0  0
 16 19  1  0  0  0  0
  2 15  1  0  0  0  0
  3 13  1  0  0  0  0
 21 20  1  6  0  0  0
 21 22  1  0  0  0  0
 21 26  1  0  0  0  0
 22 23  1  0  0  0  0
 22 31  1  1  0  0  0
 23 24  1  0  0  0  0
 23 30  1  6  0  0  0
 24 25  1  0  0  0  0
 24 29  1  1  0  0  0
 25 26  1  0  0  0  0
 25 27  1  6  0  0  0
 27 28  1  0  0  0  0
  4 20  1  0  0  0  0
  8 32  1  0  0  0  0
 34 33  1  6  0  0  0
 34 35  1  0  0  0  0
 34 39  1  0  0  0  0
 35 36  1  0  0  0  0
 35 44  1  1  0  0  0
 36 37  1  0  0  0  0
 36 43  1  6  0  0  0
 37 38  1  0  0  0  0
 37 42  1  1  0  0  0
 38 39  1  0  0  0  0
 38 40  1  6  0  0  0
 40 41  1  0  0  0  0
  7 33  1  0  0  0  0
M  END
> <score_Kier1>
0.517702

$$$$
suggested molecule #30
 MOE2019            2D

 44 48  0  0  1  0  0  0  0  0999 V2000
    3.4992   -1.2833    0.0000 C   0  0  0  0  0  0  0  0  0  1  0  0
    4.9992   -1.2762    0.0000 C   0  0  0  0  0  0  0  0  0  2  0  0
    5.7430    0.0263    0.0000 C   0  0  0  0  0  0  0  0  0  3  0  0
    4.9869    1.3218    0.0000 C   0  0  0  0  0  0  0  0  0  4  0  0
    3.4870    1.3147    0.0000 C   0  0  0  0  0  0  0  0  0  5  0  0
    2.7431    0.0122    0.0000 C   0  0  0  0  0  0  0  0  0  6  0  0
    1.2431    0.0051    0.0000 C   0  0  0  0  0  0  0  0  0  7  0  0
    0.4870    1.3006    0.0000 C   0  0  0  0  0  0  0  0  0  8  0  0
    1.2309    2.6032    0.0000 C   0  0  0  0  0  0  0  0  0  9  0  0
    0.4748    3.8987    0.0000 O   0  0  0  0  0  0  0  0  0 10  0  0
    2.7309    2.6102    0.0000 O   0  0  0  0  0  0  0  0  0 11  0  0
    2.9041   -2.3253    0.0000 H   0  0  0  0  0  0  0  0  0  0  0  0
    7.2117   -0.2787    0.0000 O   0  0  0  0  0  0  0  0  0  0  0  0
    7.3755   -1.7697    0.0000 C   0  0  1  0  0  0  0  0  0  0  0  0
    6.0081   -2.3862    0.0000 C   0  0  0  0  0  0  0  0  0  0  0  0
    8.6781   -2.5136    0.0000 C   0  0  0  0  0  0  0  0  0  0  0  0
    9.4220   -1.2110    0.0000 C   0  0  0  0  0  0  0  0  0  0  0  0
    7.9342   -3.8161    0.0000 C   0  0  0  0  0  0  0  0  0  0  0  0
    9.9806   -3.2575    0.0000 O   0  0  0  0  0  0  0  0  0  0  0  0
    5.7308    2.6244    0.0000 O   0  0  0  0  0  0  0  0  0  0  0  0
    7.2308    2.6314    0.0000 C   0  0  1  0  0  0  0  0  0  0  0  0
    7.9747    3.9340    0.0000 C   0  0  1  0  0  0  0  0  0  0  0  0
    9.4747    3.9410    0.0000 C   0  0  2  0  0  0  0  0  0  0  0  0
   10.2308    2.6455    0.0000 C   0  0  1  0  0  0  0  0  0  0  0  0
    9.4869    1.3430    0.0000 C   0  0  2  0  0  0  0  0  0  0  0  0
    7.9869    1.3359    0.0000 O   0  0  0  0  0  0  0  0  0  0  0  0
   10.2430    0.0475    0.0000 C   0  0  0  0  0  0  0  0  0  0  0  0
   11.7430    0.0545    0.0000 O   0  0  0  0  0  0  0  0  0  0  0  0
   11.7308    2.6526    0.0000 O   0  0  0  0  0  0  0  0  0  0  0  0
   10.2186    5.2436    0.0000 O   0  0  0  0  0  0  0  0  0  0  0  0
    7.2186    5.2295    0.0000 O   0  0  0  0  0  0  0  0  0  0  0  0
   -0.7130    1.2950    0.0000 H   0  0  0  0  0  0  0  0  0  0  0  0
    0.4992   -1.2974    0.0000 O   0  0  0  0  0  0  0  0  0  0  0  0
   -1.0008   -1.3045    0.0000 C   0  0  1  0  0  0  0  0  0  0  0  0
   -1.7447   -2.6070    0.0000 C   0  0  1  0  0  0  0  0  0  0  0  0
   -3.2446   -2.6141    0.0000 C   0  0  2  0  0  0  0  0  0  0  0  0
   -4.0007   -1.3186    0.0000 C   0  0  1  0  0  0  0  0  0  0  0  0
   -3.2569   -0.0160    0.0000 C   0  0  2  0  0  0  0  0  0  0  0  0
   -1.7569   -0.0090    0.0000 O   0  0  0  0  0  0  0  0  0  0  0  0
   -4.0130    1.2795    0.0000 C   0  0  0  0  0  0  0  0  0  0  0  0
   -5.5129    1.2724    0.0000 O   0  0  0  0  0  0  0  0  0  0  0  0
   -5.5007   -1.3256    0.0000 O   0  0  0  0  0  0  0  0  0  0  0  0
   -3.9885   -3.9166    0.0000 O   0  0  0  0  0  0  0  0  0  0  0  0
   -0.9886   -3.9025    0.0000 O   0  0  0  0  0  0  0  0  0  0  0  0
  1  2  2  0  0  0  0
  1  6  1  0  0  0  0
  2  3  1  0  0  0  0
  3  4  2  0  0  0  0
  4  5  1  0  0  0  0
  5  6  2  0  0  0  0
  5 11  1  0  0  0  0
  6  7  1  0  0  0  0
  7  8  2  0  0  0  0
  8  9  1  0  0  0  0
  9 10  2  0  0  0  0
  9 11  1  0  0  0  0
  1 12  1  0  0  0  0
 13 14  1  0  0  0  0
 14 15  1  0  0  0  0
 14 16  1  6  0  0  0
 16 17  1  0  0  0  0
 16 18  1  0  0  0  0
 16 19  1  0  0  0  0
  2 15  1  0  0  0  0
  3 13  1  0  0  0  0
 21 20  1  6  0  0  0
 21 22  1  0  0  0  0
 21 26  1  0  0  0  0
 22 23  1  0  0  0  0
 22 31  1  1  0  0  0
 23 24  1  0  0  0  0
 23 30  1  6  0  0  0
 24 25  1  0  0  0  0
 24 29  1  1  0  0  0
 25 26  1  0  0  0  0
 25 27  1  6  0  0  0
 27 28  1  0  0  0  0
  4 20  1  0  0  0  0
  8 32  1  0  0  0  0
 34 33  1  6  0  0  0
 34 35  1  0  0  0  0
 34 39  1  0  0  0  0
 35 36  1  0  0  0  0
 35 44  1  1  0  0  0
 36 37  1  0  0  0  0
 36 43  1  6  0  0  0
 37 38  1  0  0  0  0
 37 42  1  1  0  0  0
 38 39  1  0  0  0  0
 38 40  1  6  0  0  0
 40 41  1  0  0  0  0
  7 33  1  0  0  0  0
M  END
> <score_Kier2>
0.51646

$$$$
suggested molecule #31
 MOE2019            2D

 44 48  0  0  1  0  0  0  0  0999 V2000
    3.4992   -1.2833    0.0000 C   0  0  0  0  0  0  0  0  0  1  0  0
    4.9992   -1.2762    0.0000 C   0  0  0  0  0  0  0  0  0  2  0  0
    5.7430    0.0263    0.0000 C   0  0  0  0  0  0  0  0  0  3  0  0
    4.9869    1.3218    0.0000 C   0  0  0  0  0  0  0  0  0  4  0  0
    3.4870    1.3147    0.0000 C   0  0  0  0  0  0  0  0  0  5  0  0
    2.7431    0.0122    0.0000 C   0  0  0  0  0  0  0  0  0  6  0  0
    1.2431    0.0051    0.0000 C   0  0  0  0  0  0  0  0  0  7  0  0
    0.4870    1.3006    0.0000 C   0  0  0  0  0  0  0  0  0  8  0  0
    1.2309    2.6032    0.0000 C   0  0  0  0  0  0  0  0  0  9  0  0
    0.4748    3.8987    0.0000 O   0  0  0  0  0  0  0  0  0 10  0  0
    2.7309    2.6102    0.0000 O   0  0  0  0  0  0  0  0  0 11  0  0
    2.9041   -2.3253    0.0000 H   0  0  0  0  0  0  0  0  0  0  0  0
    7.2117   -0.2787    0.0000 O   0  0  0  0  0  0  0  0  0  0  0  0
    7.3755   -1.7697    0.0000 C   0  0  1  0  0  0  0  0  0  0  0  0
    6.0081   -2.3862    0.0000 C   0  0  0  0  0  0  0  0  0  0  0  0
    8.6781   -2.5136    0.0000 C   0  0  0  0  0  0  0  0  0  0  0  0
    9.4220   -1.2110    0.0000 C   0  0  0  0  0  0  0  0  0  0  0  0
    7.9342   -3.8161    0.0000 C   0  0  0  0  0  0  0  0  0  0  0  0
    9.9806   -3.2575    0.0000 O   0  0  0  0  0  0  0  0  0  0  0  0
    5.7308    2.6244    0.0000 O   0  0  0  0  0  0  0  0  0  0  0  0
    7.2308    2.6314    0.0000 C   0  0  1  0  0  0  0  0  0  0  0  0
    7.9747    3.9340    0.0000 C   0  0  1  0  0  0  0  0  0  0  0  0
    9.4747    3.9410    0.0000 C   0  0  2  0  0  0  0  0  0  0  0  0
   10.2308    2.6455    0.0000 C   0  0  1  0  0  0  0  0  0  0  0  0
    9.4869    1.3430    0.0000 C   0  0  2  0  0  0  0  0  0  0  0  0
    7.9869    1.3359    0.0000 O   0  0  0  0  0  0  0  0  0  0  0  0
   10.2430    0.0475    0.0000 C   0  0  0  0  0  0  0  0  0  0  0  0
   11.7430    0.0545    0.0000 O   0  0  0  0  0  0  0  0  0  0  0  0
   11.7308    2.6526    0.0000 O   0  0  0  0  0  0  0  0  0  0  0  0
   10.2186    5.2436    0.0000 O   0  0  0  0  0  0  0  0  0  0  0  0
    7.2186    5.2295    0.0000 O   0  0  0  0  0  0  0  0  0  0  0  0
   -0.7130    1.2950    0.0000 H   0  0  0  0  0  0  0  0  0  0  0  0
    0.4992   -1.2974    0.0000 O   0  0  0  0  0  0  0  0  0  0  0  0
   -1.0008   -1.3045    0.0000 C   0  0  1  0  0  0  0  0  0  0  0  0
   -1.7447   -2.6070    0.0000 C   0  0  1  0  0  0  0  0  0  0  0  0
   -3.2446   -2.6141    0.0000 C   0  0  2  0  0  0  0  0  0  0  0  0
   -4.0007   -1.3186    0.0000 C   0  0  1  0  0  0  0  0  0  0  0  0
   -3.2569   -0.0160    0.0000 C   0  0  2  0  0  0  0  0  0  0  0  0
   -1.7569   -0.0090    0.0000 O   0  0  0  0  0  0  0  0  0  0  0  0
   -4.0130    1.2795    0.0000 C   0  0  0  0  0  0  0  0  0  0  0  0
   -5.5129    1.2724    0.0000 O   0  0  0  0  0  0  0  0  0  0  0  0
   -5.5007   -1.3256    0.0000 O   0  0  0  0  0  0  0  0  0  0  0  0
   -3.9885   -3.9166    0.0000 O   0  0  0  0  0  0  0  0  0  0  0  0
   -0.9886   -3.9025    0.0000 O   0  0  0  0  0  0  0  0  0  0  0  0
  1  2  2  0  0  0  0
  1  6  1  0  0  0  0
  2  3  1  0  0  0  0
  3  4  2  0  0  0  0
  4  5  1  0  0  0  0
  5  6  2  0  0  0  0
  5 11  1  0  0  0  0
  6  7  1  0  0  0  0
  7  8  2  0  0  0  0
  8  9  1  0  0  0  0
  9 10  2  0  0  0  0
  9 11  1  0  0  0  0
  1 12  1  0  0  0  0
 13 14  1  0  0  0  0
 14 15  1  0  0  0  0
 14 16  1  6  0  0  0
 16 17  1  0  0  0  0
 16 18  1  0  0  0  0
 16 19  1  0  0  0  0
  2 15  1  0  0  0  0
  3 13  1  0  0  0  0
 21 20  1  6  0  0  0
 21 22  1  0  0  0  0
 21 26  1  0  0  0  0
 22 23  1  0  0  0  0
 22 31  1  1  0  0  0
 23 24  1  0  0  0  0
 23 30  1  6  0  0  0
 24 25  1  0  0  0  0
 24 29  1  1  0  0  0
 25 26  1  0  0  0  0
 25 27  1  6  0  0  0
 27 28  1  0  0  0  0
  4 20  1  0  0  0  0
  8 32  1  0  0  0  0
 34 33  1  6  0  0  0
 34 35  1  0  0  0  0
 34 39  1  0  0  0  0
 35 36  1  0  0  0  0
 35 44  1  1  0  0  0
 36 37  1  0  0  0  0
 36 43  1  6  0  0  0
 37 38  1  0  0  0  0
 37 42  1  1  0  0  0
 38 39  1  0  0  0  0
 38 40  1  6  0  0  0
 40 41  1  0  0  0  0
  7 33  1  0  0  0  0
M  END
> <score_Kier3>
0.511571

$$$$
suggested molecule #32
 MOE2019            2D

 44 48  0  0  1  0  0  0  0  0999 V2000
    3.4992   -1.2833    0.0000 C   0  0  0  0  0  0  0  0  0  1  0  0
    4.9992   -1.2762    0.0000 C   0  0  0  0  0  0  0  0  0  2  0  0
    5.7430    0.0263    0.0000 C   0  0  0  0  0  0  0  0  0  3  0  0
    4.9869    1.3218    0.0000 C   0  0  0  0  0  0  0  0  0  4  0  0
    3.4870    1.3147    0.0000 C   0  0  0  0  0  0  0  0  0  5  0  0
    2.7431    0.0122    0.0000 C   0  0  0  0  0  0  0  0  0  6  0  0
    1.2431    0.0051    0.0000 C   0  0  0  0  0  0  0  0  0  7  0  0
    0.4870    1.3006    0.0000 C   0  0  0  0  0  0  0  0  0  8  0  0
    1.2309    2.6032    0.0000 C   0  0  0  0  0  0  0  0  0  9  0  0
    0.4748    3.8987    0.0000 O   0  0  0  0  0  0  0  0  0 10  0  0
    2.7309    2.6102    0.0000 O   0  0  0  0  0  0  0  0  0 11  0  0
    2.9041   -2.3253    0.0000 H   0  0  0  0  0  0  0  0  0  0  0  0
    7.2117   -0.2787    0.0000 O   0  0  0  0  0  0  0  0  0  0  0  0
    7.3755   -1.7697    0.0000 C   0  0  1  0  0  0  0  0  0  0  0  0
    6.0081   -2.3862    0.0000 C   0  0  0  0  0  0  0  0  0  0  0  0
    8.6781   -2.5136    0.0000 C   0  0  0  0  0  0  0  0  0  0  0  0
    9.4220   -1.2110    0.0000 C   0  0  0  0  0  0  0  0  0  0  0  0
    7.9342   -3.8161    0.0000 C   0  0  0  0  0  0  0  0  0  0  0  0
    9.9806   -3.2575    0.0000 O   0  0  0  0  0  0  0  0  0  0  0  0
    5.7308    2.6244    0.0000 O   0  0  0  0  0  0  0  0  0  0  0  0
    7.2308    2.6314    0.0000 C   0  0  1  0  0  0  0  0  0  0  0  0
    7.9747    3.9340    0.0000 C   0  0  1  0  0  0  0  0  0  0  0  0
    9.4747    3.9410    0.0000 C   0  0  2  0  0  0  0  0  0  0  0  0
   10.2308    2.6455    0.0000 C   0  0  1  0  0  0  0  0  0  0  0  0
    9.4869    1.3430    0.0000 C   0  0  2  0  0  0  0  0  0  0  0  0
    7.9869    1.3359    0.0000 O   0  0  0  0  0  0  0  0  0  0  0  0
   10.2430    0.0475    0.0000 C   0  0  0  0  0  0  0  0  0  0  0  0
   11.7430    0.0545    0.0000 O   0  0  0  0  0  0  0  0  0  0  0  0
   11.7308    2.6526    0.0000 O   0  0  0  0  0  0  0  0  0  0  0  0
   10.2186    5.2436    0.0000 O   0  0  0  0  0  0  0  0  0  0  0  0
    7.2186    5.2295    0.0000 O   0  0  0  0  0  0  0  0  0  0  0  0
   -0.7130    1.2950    0.0000 H   0  0  0  0  0  0  0  0  0  0  0  0
    0.4992   -1.2974    0.0000 O   0  0  0  0  0  0  0  0  0  0  0  0
   -1.0008   -1.3045    0.0000 C   0  0  1  0  0  0  0  0  0  0  0  0
   -1.7447   -2.6070    0.0000 C   0  0  1  0  0  0  0  0  0  0  0  0
   -3.2446   -2.6141    0.0000 C   0  0  2  0  0  0  0  0  0  0  0  0
   -4.0007   -1.3186    0.0000 C   0  0  1  0  0  0  0  0  0  0  0  0
   -3.2569   -0.0160    0.0000 C   0  0  2  0  0  0  0  0  0  0  0  0
   -1.7569   -0.0090    0.0000 O   0  0  0  0  0  0  0  0  0  0  0  0
   -4.0130    1.2795    0.0000 C   0  0  0  0  0  0  0  0  0  0  0  0
   -5.5129    1.2724    0.0000 O   0  0  0  0  0  0  0  0  0  0  0  0
   -5.5007   -1.3256    0.0000 O   0  0  0  0  0  0  0  0  0  0  0  0
   -3.9885   -3.9166    0.0000 O   0  0  0  0  0  0  0  0  0  0  0  0
   -0.9886   -3.9025    0.0000 O   0  0  0  0  0  0  0  0  0  0  0  0
  1  2  2  0  0  0  0
  1  6  1  0  0  0  0
  2  3  1  0  0  0  0
  3  4  2  0  0  0  0
  4  5  1  0  0  0  0
  5  6  2  0  0  0  0
  5 11  1  0  0  0  0
  6  7  1  0  0  0  0
  7  8  2  0  0  0  0
  8  9  1  0  0  0  0
  9 10  2  0  0  0  0
  9 11  1  0  0  0  0
  1 12  1  0  0  0  0
 13 14  1  0  0  0  0
 14 15  1  0  0  0  0
 14 16  1  6  0  0  0
 16 17  1  0  0  0  0
 16 18  1  0  0  0  0
 16 19  1  0  0  0  0
  2 15  1  0  0  0  0
  3 13  1  0  0  0  0
 21 20  1  6  0  0  0
 21 22  1  0  0  0  0
 21 26  1  0  0  0  0
 22 23  1  0  0  0  0
 22 31  1  1  0  0  0
 23 24  1  0  0  0  0
 23 30  1  6  0  0  0
 24 25  1  0  0  0  0
 24 29  1  1  0  0  0
 25 26  1  0  0  0  0
 25 27  1  6  0  0  0
 27 28  1  0  0  0  0
  4 20  1  0  0  0  0
  8 32  1  0  0  0  0
 34 33  1  6  0  0  0
 34 35  1  0  0  0  0
 34 39  1  0  0  0  0
 35 36  1  0  0  0  0
 35 44  1  1  0  0  0
 36 37  1  0  0  0  0
 36 43  1  6  0  0  0
 37 38  1  0  0  0  0
 37 42  1  1  0  0  0
 38 39  1  0  0  0  0
 38 40  1  6  0  0  0
 40 41  1  0  0  0  0
  7 33  1  0  0  0  0
M  END
> <score_KierA1>
0.51762

$$$$
suggested molecule #33
 MOE2019            2D

 44 48  0  0  1  0  0  0  0  0999 V2000
    3.4992   -1.2833    0.0000 C   0  0  0  0  0  0  0  0  0  1  0  0
    4.9992   -1.2762    0.0000 C   0  0  0  0  0  0  0  0  0  2  0  0
    5.7430    0.0263    0.0000 C   0  0  0  0  0  0  0  0  0  3  0  0
    4.9869    1.3218    0.0000 C   0  0  0  0  0  0  0  0  0  4  0  0
    3.4870    1.3147    0.0000 C   0  0  0  0  0  0  0  0  0  5  0  0
    2.7431    0.0122    0.0000 C   0  0  0  0  0  0  0  0  0  6  0  0
    1.2431    0.0051    0.0000 C   0  0  0  0  0  0  0  0  0  7  0  0
    0.4870    1.3006    0.0000 C   0  0  0  0  0  0  0  0  0  8  0  0
    1.2309    2.6032    0.0000 C   0  0  0  0  0  0  0  0  0  9  0  0
    0.4748    3.8987    0.0000 O   0  0  0  0  0  0  0  0  0 10  0  0
    2.7309    2.6102    0.0000 O   0  0  0  0  0  0  0  0  0 11  0  0
    2.9041   -2.3253    0.0000 H   0  0  0  0  0  0  0  0  0  0  0  0
    7.2117   -0.2787    0.0000 O   0  0  0  0  0  0  0  0  0  0  0  0
    7.3755   -1.7697    0.0000 C   0  0  1  0  0  0  0  0  0  0  0  0
    6.0081   -2.3862    0.0000 C   0  0  0  0  0  0  0  0  0  0  0  0
    8.6781   -2.5136    0.0000 C   0  0  0  0  0  0  0  0  0  0  0  0
    9.4220   -1.2110    0.0000 C   0  0  0  0  0  0  0  0  0  0  0  0
    7.9342   -3.8161    0.0000 C   0  0  0  0  0  0  0  0  0  0  0  0
    9.9806   -3.2575    0.0000 O   0  0  0  0  0  0  0  0  0  0  0  0
    5.7308    2.6244    0.0000 O   0  0  0  0  0  0  0  0  0  0  0  0
    7.2308    2.6314    0.0000 C   0  0  1  0  0  0  0  0  0  0  0  0
    7.9747    3.9340    0.0000 C   0  0  1  0  0  0  0  0  0  0  0  0
    9.4747    3.9410    0.0000 C   0  0  2  0  0  0  0  0  0  0  0  0
   10.2308    2.6455    0.0000 C   0  0  1  0  0  0  0  0  0  0  0  0
    9.4869    1.3430    0.0000 C   0  0  2  0  0  0  0  0  0  0  0  0
    7.9869    1.3359    0.0000 O   0  0  0  0  0  0  0  0  0  0  0  0
   10.2430    0.0475    0.0000 C   0  0  0  0  0  0  0  0  0  0  0  0
   11.7430    0.0545    0.0000 O   0  0  0  0  0  0  0  0  0  0  0  0
   11.7308    2.6526    0.0000 O   0  0  0  0  0  0  0  0  0  0  0  0
   10.2186    5.2436    0.0000 O   0  0  0  0  0  0  0  0  0  0  0  0
    7.2186    5.2295    0.0000 O   0  0  0  0  0  0  0  0  0  0  0  0
   -0.7130    1.2950    0.0000 H   0  0  0  0  0  0  0  0  0  0  0  0
    0.4992   -1.2974    0.0000 O   0  0  0  0  0  0  0  0  0  0  0  0
   -1.0008   -1.3045    0.0000 C   0  0  1  0  0  0  0  0  0  0  0  0
   -1.7447   -2.6070    0.0000 C   0  0  1  0  0  0  0  0  0  0  0  0
   -3.2446   -2.6141    0.0000 C   0  0  2  0  0  0  0  0  0  0  0  0
   -4.0007   -1.3186    0.0000 C   0  0  1  0  0  0  0  0  0  0  0  0
   -3.2569   -0.0160    0.0000 C   0  0  2  0  0  0  0  0  0  0  0  0
   -1.7569   -0.0090    0.0000 O   0  0  0  0  0  0  0  0  0  0  0  0
   -4.0130    1.2795    0.0000 C   0  0  0  0  0  0  0  0  0  0  0  0
   -5.5129    1.2724    0.0000 O   0  0  0  0  0  0  0  0  0  0  0  0
   -5.5007   -1.3256    0.0000 O   0  0  0  0  0  0  0  0  0  0  0  0
   -3.9885   -3.9166    0.0000 O   0  0  0  0  0  0  0  0  0  0  0  0
   -0.9886   -3.9025    0.0000 O   0  0  0  0  0  0  0  0  0  0  0  0
  1  2  2  0  0  0  0
  1  6  1  0  0  0  0
  2  3  1  0  0  0  0
  3  4  2  0  0  0  0
  4  5  1  0  0  0  0
  5  6  2  0  0  0  0
  5 11  1  0  0  0  0
  6  7  1  0  0  0  0
  7  8  2  0  0  0  0
  8  9  1  0  0  0  0
  9 10  2  0  0  0  0
  9 11  1  0  0  0  0
  1 12  1  0  0  0  0
 13 14  1  0  0  0  0
 14 15  1  0  0  0  0
 14 16  1  6  0  0  0
 16 17  1  0  0  0  0
 16 18  1  0  0  0  0
 16 19  1  0  0  0  0
  2 15  1  0  0  0  0
  3 13  1  0  0  0  0
 21 20  1  6  0  0  0
 21 22  1  0  0  0  0
 21 26  1  0  0  0  0
 22 23  1  0  0  0  0
 22 31  1  1  0  0  0
 23 24  1  0  0  0  0
 23 30  1  6  0  0  0
 24 25  1  0  0  0  0
 24 29  1  1  0  0  0
 25 26  1  0  0  0  0
 25 27  1  6  0  0  0
 27 28  1  0  0  0  0
  4 20  1  0  0  0  0
  8 32  1  0  0  0  0
 34 33  1  6  0  0  0
 34 35  1  0  0  0  0
 34 39  1  0  0  0  0
 35 36  1  0  0  0  0
 35 44  1  1  0  0  0
 36 37  1  0  0  0  0
 36 43  1  6  0  0  0
 37 38  1  0  0  0  0
 37 42  1  1  0  0  0
 38 39  1  0  0  0  0
 38 40  1  6  0  0  0
 40 41  1  0  0  0  0
  7 33  1  0  0  0  0
M  END
> <score_KierA2>
0.516736

$$$$
suggested molecule #34
 MOE2019            2D

 44 48  0  0  1  0  0  0  0  0999 V2000
    3.4992   -1.2833    0.0000 C   0  0  0  0  0  0  0  0  0  1  0  0
    4.9992   -1.2762    0.0000 C   0  0  0  0  0  0  0  0  0  2  0  0
    5.7430    0.0263    0.0000 C   0  0  0  0  0  0  0  0  0  3  0  0
    4.9869    1.3218    0.0000 C   0  0  0  0  0  0  0  0  0  4  0  0
    3.4870    1.3147    0.0000 C   0  0  0  0  0  0  0  0  0  5  0  0
    2.7431    0.0122    0.0000 C   0  0  0  0  0  0  0  0  0  6  0  0
    1.2431    0.0051    0.0000 C   0  0  0  0  0  0  0  0  0  7  0  0
    0.4870    1.3006    0.0000 C   0  0  0  0  0  0  0  0  0  8  0  0
    1.2309    2.6032    0.0000 C   0  0  0  0  0  0  0  0  0  9  0  0
    0.4748    3.8987    0.0000 O   0  0  0  0  0  0  0  0  0 10  0  0
    2.7309    2.6102    0.0000 O   0  0  0  0  0  0  0  0  0 11  0  0
    2.9041   -2.3253    0.0000 H   0  0  0  0  0  0  0  0  0  0  0  0
    7.2117   -0.2787    0.0000 O   0  0  0  0  0  0  0  0  0  0  0  0
    7.3755   -1.7697    0.0000 C   0  0  1  0  0  0  0  0  0  0  0  0
    6.0081   -2.3862    0.0000 C   0  0  0  0  0  0  0  0  0  0  0  0
    8.6781   -2.5136    0.0000 C   0  0  0  0  0  0  0  0  0  0  0  0
    9.4220   -1.2110    0.0000 C   0  0  0  0  0  0  0  0  0  0  0  0
    7.9342   -3.8161    0.0000 C   0  0  0  0  0  0  0  0  0  0  0  0
    9.9806   -3.2575    0.0000 O   0  0  0  0  0  0  0  0  0  0  0  0
    5.7308    2.6244    0.0000 O   0  0  0  0  0  0  0  0  0  0  0  0
    7.2308    2.6314    0.0000 C   0  0  1  0  0  0  0  0  0  0  0  0
    7.9747    3.9340    0.0000 C   0  0  1  0  0  0  0  0  0  0  0  0
    9.4747    3.9410    0.0000 C   0  0  2  0  0  0  0  0  0  0  0  0
   10.2308    2.6455    0.0000 C   0  0  1  0  0  0  0  0  0  0  0  0
    9.4869    1.3430    0.0000 C   0  0  2  0  0  0  0  0  0  0  0  0
    7.9869    1.3359    0.0000 O   0  0  0  0  0  0  0  0  0  0  0  0
   10.2430    0.0475    0.0000 C   0  0  0  0  0  0  0  0  0  0  0  0
   11.7430    0.0545    0.0000 O   0  0  0  0  0  0  0  0  0  0  0  0
   11.7308    2.6526    0.0000 O   0  0  0  0  0  0  0  0  0  0  0  0
   10.2186    5.2436    0.0000 O   0  0  0  0  0  0  0  0  0  0  0  0
    7.2186    5.2295    0.0000 O   0  0  0  0  0  0  0  0  0  0  0  0
   -0.7130    1.2950    0.0000 H   0  0  0  0  0  0  0  0  0  0  0  0
    0.4992   -1.2974    0.0000 O   0  0  0  0  0  0  0  0  0  0  0  0
   -1.0008   -1.3045    0.0000 C   0  0  1  0  0  0  0  0  0  0  0  0
   -1.7447   -2.6070    0.0000 C   0  0  1  0  0  0  0  0  0  0  0  0
   -3.2446   -2.6141    0.0000 C   0  0  2  0  0  0  0  0  0  0  0  0
   -4.0007   -1.3186    0.0000 C   0  0  1  0  0  0  0  0  0  0  0  0
   -3.2569   -0.0160    0.0000 C   0  0  2  0  0  0  0  0  0  0  0  0
   -1.7569   -0.0090    0.0000 O   0  0  0  0  0  0  0  0  0  0  0  0
   -4.0130    1.2795    0.0000 C   0  0  0  0  0  0  0  0  0  0  0  0
   -5.5129    1.2724    0.0000 O   0  0  0  0  0  0  0  0  0  0  0  0
   -5.5007   -1.3256    0.0000 O   0  0  0  0  0  0  0  0  0  0  0  0
   -3.9885   -3.9166    0.0000 O   0  0  0  0  0  0  0  0  0  0  0  0
   -0.9886   -3.9025    0.0000 O   0  0  0  0  0  0  0  0  0  0  0  0
  1  2  2  0  0  0  0
  1  6  1  0  0  0  0
  2  3  1  0  0  0  0
  3  4  2  0  0  0  0
  4  5  1  0  0  0  0
  5  6  2  0  0  0  0
  5 11  1  0  0  0  0
  6  7  1  0  0  0  0
  7  8  2  0  0  0  0
  8  9  1  0  0  0  0
  9 10  2  0  0  0  0
  9 11  1  0  0  0  0
  1 12  1  0  0  0  0
 13 14  1  0  0  0  0
 14 15  1  0  0  0  0
 14 16  1  6  0  0  0
 16 17  1  0  0  0  0
 16 18  1  0  0  0  0
 16 19  1  0  0  0  0
  2 15  1  0  0  0  0
  3 13  1  0  0  0  0
 21 20  1  6  0  0  0
 21 22  1  0  0  0  0
 21 26  1  0  0  0  0
 22 23  1  0  0  0  0
 22 31  1  1  0  0  0
 23 24  1  0  0  0  0
 23 30  1  6  0  0  0
 24 25  1  0  0  0  0
 24 29  1  1  0  0  0
 25 26  1  0  0  0  0
 25 27  1  6  0  0  0
 27 28  1  0  0  0  0
  4 20  1  0  0  0  0
  8 32  1  0  0  0  0
 34 33  1  6  0  0  0
 34 35  1  0  0  0  0
 34 39  1  0  0  0  0
 35 36  1  0  0  0  0
 35 44  1  1  0  0  0
 36 37  1  0  0  0  0
 36 43  1  6  0  0  0
 37 38  1  0  0  0  0
 37 42  1  1  0  0  0
 38 39  1  0  0  0  0
 38 40  1  6  0  0  0
 40 41  1  0  0  0  0
  7 33  1  0  0  0  0
M  END
> <score_KierA3>
0.512176

$$$$
suggested molecule #35
 MOE2019            2D

 44 48  0  0  1  0  0  0  0  0999 V2000
    3.4992   -1.2833    0.0000 C   0  0  0  0  0  0  0  0  0  1  0  0
    4.9992   -1.2762    0.0000 C   0  0  0  0  0  0  0  0  0  2  0  0
    5.7430    0.0263    0.0000 C   0  0  0  0  0  0  0  0  0  3  0  0
    4.9869    1.3218    0.0000 C   0  0  0  0  0  0  0  0  0  4  0  0
    3.4870    1.3147    0.0000 C   0  0  0  0  0  0  0  0  0  5  0  0
    2.7431    0.0122    0.0000 C   0  0  0  0  0  0  0  0  0  6  0  0
    1.2431    0.0051    0.0000 C   0  0  0  0  0  0  0  0  0  7  0  0
    0.4870    1.3006    0.0000 C   0  0  0  0  0  0  0  0  0  8  0  0
    1.2309    2.6032    0.0000 C   0  0  0  0  0  0  0  0  0  9  0  0
    0.4748    3.8987    0.0000 O   0  0  0  0  0  0  0  0  0 10  0  0
    2.7309    2.6102    0.0000 O   0  0  0  0  0  0  0  0  0 11  0  0
    2.9041   -2.3253    0.0000 H   0  0  0  0  0  0  0  0  0  0  0  0
    7.2117   -0.2787    0.0000 O   0  0  0  0  0  0  0  0  0  0  0  0
    7.3755   -1.7697    0.0000 C   0  0  1  0  0  0  0  0  0  0  0  0
    6.0081   -2.3862    0.0000 C   0  0  0  0  0  0  0  0  0  0  0  0
    8.6781   -2.5136    0.0000 C   0  0  0  0  0  0  0  0  0  0  0  0
    9.4220   -1.2110    0.0000 C   0  0  0  0  0  0  0  0  0  0  0  0
    7.9342   -3.8161    0.0000 C   0  0  0  0  0  0  0  0  0  0  0  0
    9.9806   -3.2575    0.0000 O   0  0  0  0  0  0  0  0  0  0  0  0
    5.7308    2.6244    0.0000 O   0  0  0  0  0  0  0  0  0  0  0  0
    7.2308    2.6314    0.0000 C   0  0  1  0  0  0  0  0  0  0  0  0
    7.9747    3.9340    0.0000 C   0  0  1  0  0  0  0  0  0  0  0  0
    9.4747    3.9410    0.0000 C   0  0  2  0  0  0  0  0  0  0  0  0
   10.2308    2.6455    0.0000 C   0  0  1  0  0  0  0  0  0  0  0  0
    9.4869    1.3430    0.0000 C   0  0  2  0  0  0  0  0  0  0  0  0
    7.9869    1.3359    0.0000 O   0  0  0  0  0  0  0  0  0  0  0  0
   10.2430    0.0475    0.0000 C   0  0  0  0  0  0  0  0  0  0  0  0
   11.7430    0.0545    0.0000 O   0  0  0  0  0  0  0  0  0  0  0  0
   11.7308    2.6526    0.0000 O   0  0  0  0  0  0  0  0  0  0  0  0
   10.2186    5.2436    0.0000 O   0  0  0  0  0  0  0  0  0  0  0  0
    7.2186    5.2295    0.0000 O   0  0  0  0  0  0  0  0  0  0  0  0
   -0.7130    1.2950    0.0000 H   0  0  0  0  0  0  0  0  0  0  0  0
    0.4992   -1.2974    0.0000 O   0  0  0  0  0  0  0  0  0  0  0  0
   -1.0008   -1.3045    0.0000 C   0  0  1  0  0  0  0  0  0  0  0  0
   -1.7447   -2.6070    0.0000 C   0  0  1  0  0  0  0  0  0  0  0  0
   -3.2446   -2.6141    0.0000 C   0  0  2  0  0  0  0  0  0  0  0  0
   -4.0007   -1.3186    0.0000 C   0  0  1  0  0  0  0  0  0  0  0  0
   -3.2569   -0.0160    0.0000 C   0  0  2  0  0  0  0  0  0  0  0  0
   -1.7569   -0.0090    0.0000 O   0  0  0  0  0  0  0  0  0  0  0  0
   -4.0130    1.2795    0.0000 C   0  0  0  0  0  0  0  0  0  0  0  0
   -5.5129    1.2724    0.0000 O   0  0  0  0  0  0  0  0  0  0  0  0
   -5.5007   -1.3256    0.0000 O   0  0  0  0  0  0  0  0  0  0  0  0
   -3.9885   -3.9166    0.0000 O   0  0  0  0  0  0  0  0  0  0  0  0
   -0.9886   -3.9025    0.0000 O   0  0  0  0  0  0  0  0  0  0  0  0
  1  2  2  0  0  0  0
  1  6  1  0  0  0  0
  2  3  1  0  0  0  0
  3  4  2  0  0  0  0
  4  5  1  0  0  0  0
  5  6  2  0  0  0  0
  5 11  1  0  0  0  0
  6  7  1  0  0  0  0
  7  8  2  0  0  0  0
  8  9  1  0  0  0  0
  9 10  2  0  0  0  0
  9 11  1  0  0  0  0
  1 12  1  0  0  0  0
 13 14  1  0  0  0  0
 14 15  1  0  0  0  0
 14 16  1  6  0  0  0
 16 17  1  0  0  0  0
 16 18  1  0  0  0  0
 16 19  1  0  0  0  0
  2 15  1  0  0  0  0
  3 13  1  0  0  0  0
 21 20  1  6  0  0  0
 21 22  1  0  0  0  0
 21 26  1  0  0  0  0
 22 23  1  0  0  0  0
 22 31  1  1  0  0  0
 23 24  1  0  0  0  0
 23 30  1  6  0  0  0
 24 25  1  0  0  0  0
 24 29  1  1  0  0  0
 25 26  1  0  0  0  0
 25 27  1  6  0  0  0
 27 28  1  0  0  0  0
  4 20  1  0  0  0  0
  8 32  1  0  0  0  0
 34 33  1  6  0  0  0
 34 35  1  0  0  0  0
 34 39  1  0  0  0  0
 35 36  1  0  0  0  0
 35 44  1  1  0  0  0
 36 37  1  0  0  0  0
 36 43  1  6  0  0  0
 37 38  1  0  0  0  0
 37 42  1  1  0  0  0
 38 39  1  0  0  0  0
 38 40  1  6  0  0  0
 40 41  1  0  0  0  0
  7 33  1  0  0  0  0
M  END
> <score_KierFlex>
0.516362

$$$$
suggested molecule #36
 MOE2019            2D

 41 45  0  0  1  0  0  0  0  0999 V2000
    3.4992   -1.2833    0.0000 C   0  0  0  0  0  0  0  0  0  1  0  0
    4.9992   -1.2762    0.0000 C   0  0  0  0  0  0  0  0  0  2  0  0
    5.7430    0.0263    0.0000 C   0  0  0  0  0  0  0  0  0  3  0  0
    4.9869    1.3218    0.0000 C   0  0  0  0  0  0  0  0  0  4  0  0
    3.4870    1.3147    0.0000 C   0  0  0  0  0  0  0  0  0  5  0  0
    2.7431    0.0122    0.0000 C   0  0  0  0  0  0  0  0  0  6  0  0
    1.2431    0.0051    0.0000 C   0  0  0  0  0  0  0  0  0  7  0  0
    0.4870    1.3006    0.0000 C   0  0  0  0  0  0  0  0  0  8  0  0
    1.2309    2.6032    0.0000 C   0  0  0  0  0  0  0  0  0  9  0  0
    0.4748    3.8987    0.0000 O   0  0  0  0  0  0  0  0  0 10  0  0
    2.7309    2.6102    0.0000 O   0  0  0  0  0  0  0  0  0 11  0  0
    2.9041   -2.3253    0.0000 H   0  0  0  0  0  0  0  0  0  0  0  0
    7.2117   -0.2787    0.0000 O   0  0  0  0  0  0  0  0  0  0  0  0
    7.3755   -1.7697    0.0000 C   0  0  1  0  0  0  0  0  0  0  0  0
    6.0081   -2.3862    0.0000 C   0  0  0  0  0  0  0  0  0  0  0  0
    8.6781   -2.5136    0.0000 C   0  0  0  0  0  0  0  0  0  0  0  0
    7.9342   -3.8161    0.0000 C   0  0  0  0  0  0  0  0  0  0  0  0
    9.4220   -1.2110    0.0000 C   0  0  0  0  0  0  0  0  0  0  0  0
    9.9806   -3.2575    0.0000 O   0  0  0  0  0  0  0  0  0  0  0  0
    5.7308    2.6244    0.0000 O   0  0  0  0  0  0  0  0  0  0  0  0
    7.2308    2.6314    0.0000 C   0  0  1  0  0  0  0  0  0  0  0  0
    7.9747    3.9340    0.0000 C   0  0  1  0  0  0  0  0  0  0  0  0
    9.4747    3.9410    0.0000 C   0  0  2  0  0  0  0  0  0  0  0  0
   10.2308    2.6455    0.0000 C   0  0  1  0  0  0  0  0  0  0  0  0
    9.4869    1.3430    0.0000 C   0  0  2  0  0  0  0  0  0  0  0  0
    7.9869    1.3359    0.0000 O   0  0  0  0  0  0  0  0  0  0  0  0
   10.2430    0.0475    0.0000 C   0  0  0  0  0  0  0  0  0  0  0  0
   11.7430    0.0545    0.0000 O   0  0  0  0  0  0  0  0  0  0  0  0
   11.7308    2.6526    0.0000 O   0  0  0  0  0  0  0  0  0  0  0  0
   10.2186    5.2436    0.0000 O   0  0  0  0  0  0  0  0  0  0  0  0
    7.2186    5.2295    0.0000 O   0  0  0  0  0  0  0  0  0  0  0  0
   -0.7130    1.2950    0.0000 H   0  0  0  0  0  0  0  0  0  0  0  0
    1.2553   -2.5929    0.0000 C   0  0  0  0  0  0  0  0  0  0  0  0
    0.4992   -1.2974    0.0000 C   0  0  0  0  0  0  0  0  0  0  0  0
   -1.0008   -1.3045    0.0000 C   0  0  0  0  0  0  0  0  0  0  0  0
   -1.7447   -2.6070    0.0000 C   0  0  0  0  0  0  0  0  0  0  0  0
   -0.9886   -3.9025    0.0000 C   0  0  0  0  0  0  0  0  0  0  0  0
    0.5114   -3.8955    0.0000 C   0  0  0  0  0  0  0  0  0  0  0  0
    1.2675   -5.1910    0.0000 O   0  0  0  0  0  0  0  0  0  0  0  0
   -1.7324   -5.2051    0.0000 O   0  0  0  0  0  0  0  0  0  0  0  0
   -3.2446   -2.6141    0.0000 O   0  0  0  0  0  0  0  0  0  0  0  0
  1  2  2  0  0  0  0
  1  6  1  0  0  0  0
  2  3  1  0  0  0  0
  3  4  2  0  0  0  0
  4  5  1  0  0  0  0
  5  6  2  0  0  0  0
  5 11  1  0  0  0  0
  6  7  1  0  0  0  0
  7  8  2  0  0  0  0
  8  9  1  0  0  0  0
  9 10  2  0  0  0  0
  9 11  1  0  0  0  0
  1 12  1  0  0  0  0
 13 14  1  0  0  0  0
 14 15  1  0  0  0  0
 14 16  1  6  0  0  0
 16 17  1  0  0  0  0
 16 18  1  0  0  0  0
 16 19  1  0  0  0  0
  2 15  1  0  0  0  0
  3 13  1  0  0  0  0
 21 20  1  6  0  0  0
 21 22  1  0  0  0  0
 21 26  1  0  0  0  0
 22 23  1  0  0  0  0
 22 31  1  1  0  0  0
 23 24  1  0  0  0  0
 23 30  1  6  0  0  0
 24 25  1  0  0  0  0
 24 29  1  1  0  0  0
 25 26  1  0  0  0  0
 25 27  1  6  0  0  0
 27 28  1  0  0  0  0
  4 20  1  0  0  0  0
  8 32  1  0  0  0  0
 33 34  1  0  0  0  0
 33 38  2  0  0  0  0
 34 35  2  0  0  0  0
 35 36  1  0  0  0  0
 36 37  2  0  0  0  0
 36 41  1  0  0  0  0
 37 38  1  0  0  0  0
 37 40  1  0  0  0  0
 38 39  1  0  0  0  0
  7 34  1  0  0  0  0
M  END
> <score_Kier3>
0.511554

$$$$
suggested molecule #37
 MOE2019            2D

 41 45  0  0  1  0  0  0  0  0999 V2000
    3.4992   -1.2833    0.0000 C   0  0  0  0  0  0  0  0  0  1  0  0
    4.9992   -1.2762    0.0000 C   0  0  0  0  0  0  0  0  0  2  0  0
    5.7430    0.0263    0.0000 C   0  0  0  0  0  0  0  0  0  3  0  0
    4.9869    1.3218    0.0000 C   0  0  0  0  0  0  0  0  0  4  0  0
    3.4870    1.3147    0.0000 C   0  0  0  0  0  0  0  0  0  5  0  0
    2.7431    0.0122    0.0000 C   0  0  0  0  0  0  0  0  0  6  0  0
    1.2431    0.0051    0.0000 C   0  0  0  0  0  0  0  0  0  7  0  0
    0.4870    1.3006    0.0000 C   0  0  0  0  0  0  0  0  0  8  0  0
    1.2309    2.6032    0.0000 C   0  0  0  0  0  0  0  0  0  9  0  0
    0.4748    3.8987    0.0000 O   0  0  0  0  0  0  0  0  0 10  0  0
    2.7309    2.6102    0.0000 O   0  0  0  0  0  0  0  0  0 11  0  0
    2.9041   -2.3253    0.0000 H   0  0  0  0  0  0  0  0  0  0  0  0
    7.2117   -0.2787    0.0000 O   0  0  0  0  0  0  0  0  0  0  0  0
    7.3755   -1.7697    0.0000 C   0  0  1  0  0  0  0  0  0  0  0  0
    6.0081   -2.3862    0.0000 C   0  0  0  0  0  0  0  0  0  0  0  0
    8.6781   -2.5136    0.0000 C   0  0  0  0  0  0  0  0  0  0  0  0
    7.9342   -3.8161    0.0000 C   0  0  0  0  0  0  0  0  0  0  0  0
    9.4220   -1.2110    0.0000 C   0  0  0  0  0  0  0  0  0  0  0  0
    9.9806   -3.2575    0.0000 O   0  0  0  0  0  0  0  0  0  0  0  0
    5.7308    2.6244    0.0000 O   0  0  0  0  0  0  0  0  0  0  0  0
    7.2308    2.6314    0.0000 C   0  0  1  0  0  0  0  0  0  0  0  0
    7.9747    3.9340    0.0000 C   0  0  1  0  0  0  0  0  0  0  0  0
    9.4747    3.9410    0.0000 C   0  0  2  0  0  0  0  0  0  0  0  0
   10.2308    2.6455    0.0000 C   0  0  1  0  0  0  0  0  0  0  0  0
    9.4869    1.3430    0.0000 C   0  0  2  0  0  0  0  0  0  0  0  0
    7.9869    1.3359    0.0000 O   0  0  0  0  0  0  0  0  0  0  0  0
   10.2430    0.0475    0.0000 C   0  0  0  0  0  0  0  0  0  0  0  0
   11.7430    0.0545    0.0000 O   0  0  0  0  0  0  0  0  0  0  0  0
   11.7308    2.6526    0.0000 O   0  0  0  0  0  0  0  0  0  0  0  0
   10.2186    5.2436    0.0000 O   0  0  0  0  0  0  0  0  0  0  0  0
    7.2186    5.2295    0.0000 O   0  0  0  0  0  0  0  0  0  0  0  0
   -0.7130    1.2950    0.0000 H   0  0  0  0  0  0  0  0  0  0  0  0
    1.2553   -2.5929    0.0000 C   0  0  0  0  0  0  0  0  0  0  0  0
    0.4992   -1.2974    0.0000 C   0  0  0  0  0  0  0  0  0  0  0  0
   -1.0008   -1.3045    0.0000 C   0  0  0  0  0  0  0  0  0  0  0  0
   -1.7447   -2.6070    0.0000 C   0  0  0  0  0  0  0  0  0  0  0  0
   -0.9886   -3.9025    0.0000 C   0  0  0  0  0  0  0  0  0  0  0  0
    0.5114   -3.8955    0.0000 C   0  0  0  0  0  0  0  0  0  0  0  0
    1.2675   -5.1910    0.0000 O   0  0  0  0  0  0  0  0  0  0  0  0
   -1.7324   -5.2051    0.0000 O   0  0  0  0  0  0  0  0  0  0  0  0
   -3.2446   -2.6141    0.0000 O   0  0  0  0  0  0  0  0  0  0  0  0
  1  2  2  0  0  0  0
  1  6  1  0  0  0  0
  2  3  1  0  0  0  0
  3  4  2  0  0  0  0
  4  5  1  0  0  0  0
  5  6  2  0  0  0  0
  5 11  1  0  0  0  0
  6  7  1  0  0  0  0
  7  8  2  0  0  0  0
  8  9  1  0  0  0  0
  9 10  2  0  0  0  0
  9 11  1  0  0  0  0
  1 12  1  0  0  0  0
 13 14  1  0  0  0  0
 14 15  1  0  0  0  0
 14 16  1  6  0  0  0
 16 17  1  0  0  0  0
 16 18  1  0  0  0  0
 16 19  1  0  0  0  0
  2 15  1  0  0  0  0
  3 13  1  0  0  0  0
 21 20  1  6  0  0  0
 21 22  1  0  0  0  0
 21 26  1  0  0  0  0
 22 23  1  0  0  0  0
 22 31  1  1  0  0  0
 23 24  1  0  0  0  0
 23 30  1  6  0  0  0
 24 25  1  0  0  0  0
 24 29  1  1  0  0  0
 25 26  1  0  0  0  0
 25 27  1  6  0  0  0
 27 28  1  0  0  0  0
  4 20  1  0  0  0  0
  8 32  1  0  0  0  0
 33 34  1  0  0  0  0
 33 38  2  0  0  0  0
 34 35  2  0  0  0  0
 35 36  1  0  0  0  0
 36 37  2  0  0  0  0
 36 41  1  0  0  0  0
 37 38  1  0  0  0  0
 37 40  1  0  0  0  0
 38 39  1  0  0  0  0
  7 34  1  0  0  0  0
M  END
> <score_KierA3>
0.512167

$$$$
suggested molecule #38
 MOE2019            2D

 41 45  0  0  1  0  0  0  0  0999 V2000
    3.4992   -1.2833    0.0000 C   0  0  0  0  0  0  0  0  0  1  0  0
    4.9992   -1.2762    0.0000 C   0  0  0  0  0  0  0  0  0  2  0  0
    5.7430    0.0263    0.0000 C   0  0  0  0  0  0  0  0  0  3  0  0
    4.9869    1.3218    0.0000 C   0  0  0  0  0  0  0  0  0  4  0  0
    3.4870    1.3147    0.0000 C   0  0  0  0  0  0  0  0  0  5  0  0
    2.7431    0.0122    0.0000 C   0  0  0  0  0  0  0  0  0  6  0  0
    1.2431    0.0051    0.0000 C   0  0  0  0  0  0  0  0  0  7  0  0
    0.4870    1.3006    0.0000 C   0  0  0  0  0  0  0  0  0  8  0  0
    1.2309    2.6032    0.0000 C   0  0  0  0  0  0  0  0  0  9  0  0
    0.4748    3.8987    0.0000 O   0  0  0  0  0  0  0  0  0 10  0  0
    2.7309    2.6102    0.0000 O   0  0  0  0  0  0  0  0  0 11  0  0
    2.9041   -2.3253    0.0000 H   0  0  0  0  0  0  0  0  0  0  0  0
    7.2117   -0.2787    0.0000 O   0  0  0  0  0  0  0  0  0  0  0  0
    7.3755   -1.7697    0.0000 C   0  0  1  0  0  0  0  0  0  0  0  0
    6.0081   -2.3862    0.0000 C   0  0  0  0  0  0  0  0  0  0  0  0
    8.6781   -2.5136    0.0000 C   0  0  0  0  0  0  0  0  0  0  0  0
    7.9342   -3.8161    0.0000 C   0  0  0  0  0  0  0  0  0  0  0  0
    9.4220   -1.2110    0.0000 C   0  0  0  0  0  0  0  0  0  0  0  0
    9.9806   -3.2575    0.0000 O   0  0  0  0  0  0  0  0  0  0  0  0
    5.7308    2.6244    0.0000 O   0  0  0  0  0  0  0  0  0  0  0  0
    7.2308    2.6314    0.0000 C   0  0  1  0  0  0  0  0  0  0  0  0
    7.9747    3.9340    0.0000 C   0  0  1  0  0  0  0  0  0  0  0  0
    9.4747    3.9410    0.0000 C   0  0  2  0  0  0  0  0  0  0  0  0
   10.2308    2.6455    0.0000 C   0  0  1  0  0  0  0  0  0  0  0  0
    9.4869    1.3430    0.0000 C   0  0  2  0  0  0  0  0  0  0  0  0
    7.9869    1.3359    0.0000 O   0  0  0  0  0  0  0  0  0  0  0  0
   10.2430    0.0475    0.0000 C   0  0  0  0  0  0  0  0  0  0  0  0
   11.7430    0.0545    0.0000 O   0  0  0  0  0  0  0  0  0  0  0  0
   11.7308    2.6526    0.0000 O   0  0  0  0  0  0  0  0  0  0  0  0
   10.2186    5.2436    0.0000 O   0  0  0  0  0  0  0  0  0  0  0  0
    7.2186    5.2295    0.0000 O   0  0  0  0  0  0  0  0  0  0  0  0
   -0.7130    1.2950    0.0000 H   0  0  0  0  0  0  0  0  0  0  0  0
    1.2553   -2.5929    0.0000 C   0  0  0  0  0  0  0  0  0  0  0  0
    0.4992   -1.2974    0.0000 C   0  0  0  0  0  0  0  0  0  0  0  0
   -1.0008   -1.3045    0.0000 C   0  0  0  0  0  0  0  0  0  0  0  0
   -1.7447   -2.6070    0.0000 C   0  0  0  0  0  0  0  0  0  0  0  0
   -0.9886   -3.9025    0.0000 C   0  0  0  0  0  0  0  0  0  0  0  0
    0.5114   -3.8955    0.0000 C   0  0  0  0  0  0  0  0  0  0  0  0
    1.2675   -5.1910    0.0000 O   0  0  0  0  0  0  0  0  0  0  0  0
   -1.7324   -5.2051    0.0000 O   0  0  0  0  0  0  0  0  0  0  0  0
   -3.2446   -2.6141    0.0000 O   0  0  0  0  0  0  0  0  0  0  0  0
  1  2  2  0  0  0  0
  1  6  1  0  0  0  0
  2  3  1  0  0  0  0
  3  4  2  0  0  0  0
  4  5  1  0  0  0  0
  5  6  2  0  0  0  0
  5 11  1  0  0  0  0
  6  7  1  0  0  0  0
  7  8  2  0  0  0  0
  8  9  1  0  0  0  0
  9 10  2  0  0  0  0
  9 11  1  0  0  0  0
  1 12  1  0  0  0  0
 13 14  1  0  0  0  0
 14 15  1  0  0  0  0
 14 16  1  6  0  0  0
 16 17  1  0  0  0  0
 16 18  1  0  0  0  0
 16 19  1  0  0  0  0
  2 15  1  0  0  0  0
  3 13  1  0  0  0  0
 21 20  1  6  0  0  0
 21 22  1  0  0  0  0
 21 26  1  0  0  0  0
 22 23  1  0  0  0  0
 22 31  1  1  0  0  0
 23 24  1  0  0  0  0
 23 30  1  6  0  0  0
 24 25  1  0  0  0  0
 24 29  1  1  0  0  0
 25 26  1  0  0  0  0
 25 27  1  6  0  0  0
 27 28  1  0  0  0  0
  4 20  1  0  0  0  0
  8 32  1  0  0  0  0
 33 34  1  0  0  0  0
 33 38  2  0  0  0  0
 34 35  2  0  0  0  0
 35 36  1  0  0  0  0
 36 37  2  0  0  0  0
 36 41  1  0  0  0  0
 37 38  1  0  0  0  0
 37 40  1  0  0  0  0
 38 39  1  0  0  0  0
  7 34  1  0  0  0  0
M  END
> <score_KierFlex>
0.516346

$$$$
suggested molecule #39
 MOE2019            2D

 38 42  0  0  1  0  0  0  0  0999 V2000
    3.4992   -1.2833    0.0000 C   0  0  0  0  0  0  0  0  0  1  0  0
    4.9992   -1.2762    0.0000 C   0  0  0  0  0  0  0  0  0  2  0  0
    5.7430    0.0263    0.0000 C   0  0  0  0  0  0  0  0  0  3  0  0
    4.9869    1.3218    0.0000 C   0  0  0  0  0  0  0  0  0  4  0  0
    3.4870    1.3147    0.0000 C   0  0  0  0  0  0  0  0  0  5  0  0
    2.7431    0.0122    0.0000 C   0  0  0  0  0  0  0  0  0  6  0  0
    1.2431    0.0051    0.0000 C   0  0  0  0  0  0  0  0  0  7  0  0
    0.4870    1.3006    0.0000 C   0  0  0  0  0  0  0  0  0  8  0  0
    1.2309    2.6032    0.0000 C   0  0  0  0  0  0  0  0  0  9  0  0
    0.4748    3.8987    0.0000 O   0  0  0  0  0  0  0  0  0 10  0  0
    2.7309    2.6102    0.0000 O   0  0  0  0  0  0  0  0  0 11  0  0
    2.9041   -2.3253    0.0000 H   0  0  0  0  0  0  0  0  0  0  0  0
    7.2117   -0.2787    0.0000 O   0  0  0  0  0  0  0  0  0  0  0  0
    7.3755   -1.7697    0.0000 C   0  0  1  0  0  0  0  0  0  0  0  0
    6.0081   -2.3862    0.0000 C   0  0  0  0  0  0  0  0  0  0  0  0
    8.6781   -2.5136    0.0000 C   0  0  0  0  0  0  0  0  0  0  0  0
    7.9342   -3.8161    0.0000 C   0  0  0  0  0  0  0  0  0  0  0  0
    9.4220   -1.2110    0.0000 C   0  0  0  0  0  0  0  0  0  0  0  0
    9.9806   -3.2575    0.0000 O   0  0  0  0  0  0  0  0  0  0  0  0
    5.7308    2.6244    0.0000 O   0  0  0  0  0  0  0  0  0  0  0  0
    7.2308    2.6314    0.0000 C   0  0  1  0  0  0  0  0  0  0  0  0
    7.9747    3.9340    0.0000 C   0  0  1  0  0  0  0  0  0  0  0  0
    9.4747    3.9410    0.0000 C   0  0  2  0  0  0  0  0  0  0  0  0
   10.2308    2.6455    0.0000 C   0  0  1  0  0  0  0  0  0  0  0  0
    9.4869    1.3430    0.0000 C   0  0  2  0  0  0  0  0  0  0  0  0
    7.9869    1.3359    0.0000 O   0  0  0  0  0  0  0  0  0  0  0  0
   10.2430    0.0475    0.0000 C   0  0  0  0  0  0  0  0  0  0  0  0
   11.7430    0.0545    0.0000 O   0  0  0  0  0  0  0  0  0  0  0  0
   11.7308    2.6526    0.0000 O   0  0  0  0  0  0  0  0  0  0  0  0
   10.2186    5.2436    0.0000 O   0  0  0  0  0  0  0  0  0  0  0  0
    7.2186    5.2295    0.0000 O   0  0  0  0  0  0  0  0  0  0  0  0
   -0.7130    1.2950    0.0000 H   0  0  0  0  0  0  0  0  0  0  0  0
    0.4992   -1.2974    0.0000 C   0  0  0  0  0  0  0  0  0  0  0  0
   -1.0008   -1.3045    0.0000 C   0  0  0  0  0  0  0  0  0  0  0  0
   -1.7447   -2.6070    0.0000 C   0  0  0  0  0  0  0  0  0  0  0  0
   -0.9886   -3.9025    0.0000 C   0  0  0  0  0  0  0  0  0  0  0  0
    0.5114   -3.8955    0.0000 C   0  0  0  0  0  0  0  0  0  0  0  0
    1.2553   -2.5929    0.0000 C   0  0  0  0  0  0  0  0  0  0  0  0
  1  2  2  0  0  0  0
  1  6  1  0  0  0  0
  2  3  1  0  0  0  0
  3  4  2  0  0  0  0
  4  5  1  0  0  0  0
  5  6  2  0  0  0  0
  5 11  1  0  0  0  0
  6  7  1  0  0  0  0
  7  8  2  0  0  0  0
  8  9  1  0  0  0  0
  9 10  2  0  0  0  0
  9 11  1  0  0  0  0
  1 12  1  0  0  0  0
 13 14  1  0  0  0  0
 14 15  1  0  0  0  0
 14 16  1  6  0  0  0
 16 17  1  0  0  0  0
 16 18  1  0  0  0  0
 16 19  1  0  0  0  0
  2 15  1  0  0  0  0
  3 13  1  0  0  0  0
 21 20  1  6  0  0  0
 21 22  1  0  0  0  0
 21 26  1  0  0  0  0
 22 23  1  0  0  0  0
 22 31  1  1  0  0  0
 23 24  1  0  0  0  0
 23 30  1  6  0  0  0
 24 25  1  0  0  0  0
 24 29  1  1  0  0  0
 25 26  1  0  0  0  0
 25 27  1  6  0  0  0
 27 28  1  0  0  0  0
  4 20  1  0  0  0  0
  8 32  1  0  0  0  0
 33 34  1  0  0  0  0
 33 38  2  0  0  0  0
 34 35  2  0  0  0  0
 35 36  1  0  0  0  0
 36 37  2  0  0  0  0
 37 38  1  0  0  0  0
  7 33  1  0  0  0  0
M  END
> <score_Kier1>
0.51813

$$$$
suggested molecule #40
 MOE2019            2D

 38 42  0  0  1  0  0  0  0  0999 V2000
    3.4992   -1.2833    0.0000 C   0  0  0  0  0  0  0  0  0  1  0  0
    4.9992   -1.2762    0.0000 C   0  0  0  0  0  0  0  0  0  2  0  0
    5.7430    0.0263    0.0000 C   0  0  0  0  0  0  0  0  0  3  0  0
    4.9869    1.3218    0.0000 C   0  0  0  0  0  0  0  0  0  4  0  0
    3.4870    1.3147    0.0000 C   0  0  0  0  0  0  0  0  0  5  0  0
    2.7431    0.0122    0.0000 C   0  0  0  0  0  0  0  0  0  6  0  0
    1.2431    0.0051    0.0000 C   0  0  0  0  0  0  0  0  0  7  0  0
    0.4870    1.3006    0.0000 C   0  0  0  0  0  0  0  0  0  8  0  0
    1.2309    2.6032    0.0000 C   0  0  0  0  0  0  0  0  0  9  0  0
    0.4748    3.8987    0.0000 O   0  0  0  0  0  0  0  0  0 10  0  0
    2.7309    2.6102    0.0000 O   0  0  0  0  0  0  0  0  0 11  0  0
    2.9041   -2.3253    0.0000 H   0  0  0  0  0  0  0  0  0  0  0  0
    7.2117   -0.2787    0.0000 O   0  0  0  0  0  0  0  0  0  0  0  0
    7.3755   -1.7697    0.0000 C   0  0  1  0  0  0  0  0  0  0  0  0
    6.0081   -2.3862    0.0000 C   0  0  0  0  0  0  0  0  0  0  0  0
    8.6781   -2.5136    0.0000 C   0  0  0  0  0  0  0  0  0  0  0  0
    7.9342   -3.8161    0.0000 C   0  0  0  0  0  0  0  0  0  0  0  0
    9.4220   -1.2110    0.0000 C   0  0  0  0  0  0  0  0  0  0  0  0
    9.9806   -3.2575    0.0000 O   0  0  0  0  0  0  0  0  0  0  0  0
    5.7308    2.6244    0.0000 O   0  0  0  0  0  0  0  0  0  0  0  0
    7.2308    2.6314    0.0000 C   0  0  1  0  0  0  0  0  0  0  0  0
    7.9747    3.9340    0.0000 C   0  0  1  0  0  0  0  0  0  0  0  0
    9.4747    3.9410    0.0000 C   0  0  2  0  0  0  0  0  0  0  0  0
   10.2308    2.6455    0.0000 C   0  0  1  0  0  0  0  0  0  0  0  0
    9.4869    1.3430    0.0000 C   0  0  2  0  0  0  0  0  0  0  0  0
    7.9869    1.3359    0.0000 O   0  0  0  0  0  0  0  0  0  0  0  0
   10.2430    0.0475    0.0000 C   0  0  0  0  0  0  0  0  0  0  0  0
   11.7430    0.0545    0.0000 O   0  0  0  0  0  0  0  0  0  0  0  0
   11.7308    2.6526    0.0000 O   0  0  0  0  0  0  0  0  0  0  0  0
   10.2186    5.2436    0.0000 O   0  0  0  0  0  0  0  0  0  0  0  0
    7.2186    5.2295    0.0000 O   0  0  0  0  0  0  0  0  0  0  0  0
   -0.7130    1.2950    0.0000 H   0  0  0  0  0  0  0  0  0  0  0  0
    0.4992   -1.2974    0.0000 C   0  0  0  0  0  0  0  0  0  0  0  0
   -1.0008   -1.3045    0.0000 C   0  0  0  0  0  0  0  0  0  0  0  0
   -1.7447   -2.6070    0.0000 C   0  0  0  0  0  0  0  0  0  0  0  0
   -0.9886   -3.9025    0.0000 C   0  0  0  0  0  0  0  0  0  0  0  0
    0.5114   -3.8955    0.0000 C   0  0  0  0  0  0  0  0  0  0  0  0
    1.2553   -2.5929    0.0000 C   0  0  0  0  0  0  0  0  0  0  0  0
  1  2  2  0  0  0  0
  1  6  1  0  0  0  0
  2  3  1  0  0  0  0
  3  4  2  0  0  0  0
  4  5  1  0  0  0  0
  5  6  2  0  0  0  0
  5 11  1  0  0  0  0
  6  7  1  0  0  0  0
  7  8  2  0  0  0  0
  8  9  1  0  0  0  0
  9 10  2  0  0  0  0
  9 11  1  0  0  0  0
  1 12  1  0  0  0  0
 13 14  1  0  0  0  0
 14 15  1  0  0  0  0
 14 16  1  6  0  0  0
 16 17  1  0  0  0  0
 16 18  1  0  0  0  0
 16 19  1  0  0  0  0
  2 15  1  0  0  0  0
  3 13  1  0  0  0  0
 21 20  1  6  0  0  0
 21 22  1  0  0  0  0
 21 26  1  0  0  0  0
 22 23  1  0  0  0  0
 22 31  1  1  0  0  0
 23 24  1  0  0  0  0
 23 30  1  6  0  0  0
 24 25  1  0  0  0  0
 24 29  1  1  0  0  0
 25 26  1  0  0  0  0
 25 27  1  6  0  0  0
 27 28  1  0  0  0  0
  4 20  1  0  0  0  0
  8 32  1  0  0  0  0
 33 34  1  0  0  0  0
 33 38  2  0  0  0  0
 34 35  2  0  0  0  0
 35 36  1  0  0  0  0
 36 37  2  0  0  0  0
 37 38  1  0  0  0  0
  7 33  1  0  0  0  0
M  END
> <score_Kier2>
0.51676

$$$$
suggested molecule #41
 MOE2019            2D

 38 42  0  0  1  0  0  0  0  0999 V2000
    3.4992   -1.2833    0.0000 C   0  0  0  0  0  0  0  0  0  1  0  0
    4.9992   -1.2762    0.0000 C   0  0  0  0  0  0  0  0  0  2  0  0
    5.7430    0.0263    0.0000 C   0  0  0  0  0  0  0  0  0  3  0  0
    4.9869    1.3218    0.0000 C   0  0  0  0  0  0  0  0  0  4  0  0
    3.4870    1.3147    0.0000 C   0  0  0  0  0  0  0  0  0  5  0  0
    2.7431    0.0122    0.0000 C   0  0  0  0  0  0  0  0  0  6  0  0
    1.2431    0.0051    0.0000 C   0  0  0  0  0  0  0  0  0  7  0  0
    0.4870    1.3006    0.0000 C   0  0  0  0  0  0  0  0  0  8  0  0
    1.2309    2.6032    0.0000 C   0  0  0  0  0  0  0  0  0  9  0  0
    0.4748    3.8987    0.0000 O   0  0  0  0  0  0  0  0  0 10  0  0
    2.7309    2.6102    0.0000 O   0  0  0  0  0  0  0  0  0 11  0  0
    2.9041   -2.3253    0.0000 H   0  0  0  0  0  0  0  0  0  0  0  0
    7.2117   -0.2787    0.0000 O   0  0  0  0  0  0  0  0  0  0  0  0
    7.3755   -1.7697    0.0000 C   0  0  1  0  0  0  0  0  0  0  0  0
    6.0081   -2.3862    0.0000 C   0  0  0  0  0  0  0  0  0  0  0  0
    8.6781   -2.5136    0.0000 C   0  0  0  0  0  0  0  0  0  0  0  0
    7.9342   -3.8161    0.0000 C   0  0  0  0  0  0  0  0  0  0  0  0
    9.4220   -1.2110    0.0000 C   0  0  0  0  0  0  0  0  0  0  0  0
    9.9806   -3.2575    0.0000 O   0  0  0  0  0  0  0  0  0  0  0  0
    5.7308    2.6244    0.0000 O   0  0  0  0  0  0  0  0  0  0  0  0
    7.2308    2.6314    0.0000 C   0  0  1  0  0  0  0  0  0  0  0  0
    7.9747    3.9340    0.0000 C   0  0  1  0  0  0  0  0  0  0  0  0
    9.4747    3.9410    0.0000 C   0  0  2  0  0  0  0  0  0  0  0  0
   10.2308    2.6455    0.0000 C   0  0  1  0  0  0  0  0  0  0  0  0
    9.4869    1.3430    0.0000 C   0  0  2  0  0  0  0  0  0  0  0  0
    7.9869    1.3359    0.0000 O   0  0  0  0  0  0  0  0  0  0  0  0
   10.2430    0.0475    0.0000 C   0  0  0  0  0  0  0  0  0  0  0  0
   11.7430    0.0545    0.0000 O   0  0  0  0  0  0  0  0  0  0  0  0
   11.7308    2.6526    0.0000 O   0  0  0  0  0  0  0  0  0  0  0  0
   10.2186    5.2436    0.0000 O   0  0  0  0  0  0  0  0  0  0  0  0
    7.2186    5.2295    0.0000 O   0  0  0  0  0  0  0  0  0  0  0  0
   -0.7130    1.2950    0.0000 H   0  0  0  0  0  0  0  0  0  0  0  0
    0.4992   -1.2974    0.0000 C   0  0  0  0  0  0  0  0  0  0  0  0
   -1.0008   -1.3045    0.0000 C   0  0  0  0  0  0  0  0  0  0  0  0
   -1.7447   -2.6070    0.0000 C   0  0  0  0  0  0  0  0  0  0  0  0
   -0.9886   -3.9025    0.0000 C   0  0  0  0  0  0  0  0  0  0  0  0
    0.5114   -3.8955    0.0000 C   0  0  0  0  0  0  0  0  0  0  0  0
    1.2553   -2.5929    0.0000 C   0  0  0  0  0  0  0  0  0  0  0  0
  1  2  2  0  0  0  0
  1  6  1  0  0  0  0
  2  3  1  0  0  0  0
  3  4  2  0  0  0  0
  4  5  1  0  0  0  0
  5  6  2  0  0  0  0
  5 11  1  0  0  0  0
  6  7  1  0  0  0  0
  7  8  2  0  0  0  0
  8  9  1  0  0  0  0
  9 10  2  0  0  0  0
  9 11  1  0  0  0  0
  1 12  1  0  0  0  0
 13 14  1  0  0  0  0
 14 15  1  0  0  0  0
 14 16  1  6  0  0  0
 16 17  1  0  0  0  0
 16 18  1  0  0  0  0
 16 19  1  0  0  0  0
  2 15  1  0  0  0  0
  3 13  1  0  0  0  0
 21 20  1  6  0  0  0
 21 22  1  0  0  0  0
 21 26  1  0  0  0  0
 22 23  1  0  0  0  0
 22 31  1  1  0  0  0
 23 24  1  0  0  0  0
 23 30  1  6  0  0  0
 24 25  1  0  0  0  0
 24 29  1  1  0  0  0
 25 26  1  0  0  0  0
 25 27  1  6  0  0  0
 27 28  1  0  0  0  0
  4 20  1  0  0  0  0
  8 32  1  0  0  0  0
 33 34  1  0  0  0  0
 33 38  2  0  0  0  0
 34 35  2  0  0  0  0
 35 36  1  0  0  0  0
 36 37  2  0  0  0  0
 37 38  1  0  0  0  0
  7 33  1  0  0  0  0
M  END
> <score_Kier3>
0.512078

$$$$
suggested molecule #42
 MOE2019            2D

 38 42  0  0  1  0  0  0  0  0999 V2000
    3.4992   -1.2833    0.0000 C   0  0  0  0  0  0  0  0  0  1  0  0
    4.9992   -1.2762    0.0000 C   0  0  0  0  0  0  0  0  0  2  0  0
    5.7430    0.0263    0.0000 C   0  0  0  0  0  0  0  0  0  3  0  0
    4.9869    1.3218    0.0000 C   0  0  0  0  0  0  0  0  0  4  0  0
    3.4870    1.3147    0.0000 C   0  0  0  0  0  0  0  0  0  5  0  0
    2.7431    0.0122    0.0000 C   0  0  0  0  0  0  0  0  0  6  0  0
    1.2431    0.0051    0.0000 C   0  0  0  0  0  0  0  0  0  7  0  0
    0.4870    1.3006    0.0000 C   0  0  0  0  0  0  0  0  0  8  0  0
    1.2309    2.6032    0.0000 C   0  0  0  0  0  0  0  0  0  9  0  0
    0.4748    3.8987    0.0000 O   0  0  0  0  0  0  0  0  0 10  0  0
    2.7309    2.6102    0.0000 O   0  0  0  0  0  0  0  0  0 11  0  0
    2.9041   -2.3253    0.0000 H   0  0  0  0  0  0  0  0  0  0  0  0
    7.2117   -0.2787    0.0000 O   0  0  0  0  0  0  0  0  0  0  0  0
    7.3755   -1.7697    0.0000 C   0  0  1  0  0  0  0  0  0  0  0  0
    6.0081   -2.3862    0.0000 C   0  0  0  0  0  0  0  0  0  0  0  0
    8.6781   -2.5136    0.0000 C   0  0  0  0  0  0  0  0  0  0  0  0
    7.9342   -3.8161    0.0000 C   0  0  0  0  0  0  0  0  0  0  0  0
    9.4220   -1.2110    0.0000 C   0  0  0  0  0  0  0  0  0  0  0  0
    9.9806   -3.2575    0.0000 O   0  0  0  0  0  0  0  0  0  0  0  0
    5.7308    2.6244    0.0000 O   0  0  0  0  0  0  0  0  0  0  0  0
    7.2308    2.6314    0.0000 C   0  0  1  0  0  0  0  0  0  0  0  0
    7.9747    3.9340    0.0000 C   0  0  1  0  0  0  0  0  0  0  0  0
    9.4747    3.9410    0.0000 C   0  0  2  0  0  0  0  0  0  0  0  0
   10.2308    2.6455    0.0000 C   0  0  1  0  0  0  0  0  0  0  0  0
    9.4869    1.3430    0.0000 C   0  0  2  0  0  0  0  0  0  0  0  0
    7.9869    1.3359    0.0000 O   0  0  0  0  0  0  0  0  0  0  0  0
   10.2430    0.0475    0.0000 C   0  0  0  0  0  0  0  0  0  0  0  0
   11.7430    0.0545    0.0000 O   0  0  0  0  0  0  0  0  0  0  0  0
   11.7308    2.6526    0.0000 O   0  0  0  0  0  0  0  0  0  0  0  0
   10.2186    5.2436    0.0000 O   0  0  0  0  0  0  0  0  0  0  0  0
    7.2186    5.2295    0.0000 O   0  0  0  0  0  0  0  0  0  0  0  0
   -0.7130    1.2950    0.0000 H   0  0  0  0  0  0  0  0  0  0  0  0
    0.4992   -1.2974    0.0000 C   0  0  0  0  0  0  0  0  0  0  0  0
   -1.0008   -1.3045    0.0000 C   0  0  0  0  0  0  0  0  0  0  0  0
   -1.7447   -2.6070    0.0000 C   0  0  0  0  0  0  0  0  0  0  0  0
   -0.9886   -3.9025    0.0000 C   0  0  0  0  0  0  0  0  0  0  0  0
    0.5114   -3.8955    0.0000 C   0  0  0  0  0  0  0  0  0  0  0  0
    1.2553   -2.5929    0.0000 C   0  0  0  0  0  0  0  0  0  0  0  0
  1  2  2  0  0  0  0
  1  6  1  0  0  0  0
  2  3  1  0  0  0  0
  3  4  2  0  0  0  0
  4  5  1  0  0  0  0
  5  6  2  0  0  0  0
  5 11  1  0  0  0  0
  6  7  1  0  0  0  0
  7  8  2  0  0  0  0
  8  9  1  0  0  0  0
  9 10  2  0  0  0  0
  9 11  1  0  0  0  0
  1 12  1  0  0  0  0
 13 14  1  0  0  0  0
 14 15  1  0  0  0  0
 14 16  1  6  0  0  0
 16 17  1  0  0  0  0
 16 18  1  0  0  0  0
 16 19  1  0  0  0  0
  2 15  1  0  0  0  0
  3 13  1  0  0  0  0
 21 20  1  6  0  0  0
 21 22  1  0  0  0  0
 21 26  1  0  0  0  0
 22 23  1  0  0  0  0
 22 31  1  1  0  0  0
 23 24  1  0  0  0  0
 23 30  1  6  0  0  0
 24 25  1  0  0  0  0
 24 29  1  1  0  0  0
 25 26  1  0  0  0  0
 25 27  1  6  0  0  0
 27 28  1  0  0  0  0
  4 20  1  0  0  0  0
  8 32  1  0  0  0  0
 33 34  1  0  0  0  0
 33 38  2  0  0  0  0
 34 35  2  0  0  0  0
 35 36  1  0  0  0  0
 36 37  2  0  0  0  0
 37 38  1  0  0  0  0
  7 33  1  0  0  0  0
M  END
> <score_KierA1>
0.518299

$$$$
suggested molecule #43
 MOE2019            2D

 38 42  0  0  1  0  0  0  0  0999 V2000
    3.4992   -1.2833    0.0000 C   0  0  0  0  0  0  0  0  0  1  0  0
    4.9992   -1.2762    0.0000 C   0  0  0  0  0  0  0  0  0  2  0  0
    5.7430    0.0263    0.0000 C   0  0  0  0  0  0  0  0  0  3  0  0
    4.9869    1.3218    0.0000 C   0  0  0  0  0  0  0  0  0  4  0  0
    3.4870    1.3147    0.0000 C   0  0  0  0  0  0  0  0  0  5  0  0
    2.7431    0.0122    0.0000 C   0  0  0  0  0  0  0  0  0  6  0  0
    1.2431    0.0051    0.0000 C   0  0  0  0  0  0  0  0  0  7  0  0
    0.4870    1.3006    0.0000 C   0  0  0  0  0  0  0  0  0  8  0  0
    1.2309    2.6032    0.0000 C   0  0  0  0  0  0  0  0  0  9  0  0
    0.4748    3.8987    0.0000 O   0  0  0  0  0  0  0  0  0 10  0  0
    2.7309    2.6102    0.0000 O   0  0  0  0  0  0  0  0  0 11  0  0
    2.9041   -2.3253    0.0000 H   0  0  0  0  0  0  0  0  0  0  0  0
    7.2117   -0.2787    0.0000 O   0  0  0  0  0  0  0  0  0  0  0  0
    7.3755   -1.7697    0.0000 C   0  0  1  0  0  0  0  0  0  0  0  0
    6.0081   -2.3862    0.0000 C   0  0  0  0  0  0  0  0  0  0  0  0
    8.6781   -2.5136    0.0000 C   0  0  0  0  0  0  0  0  0  0  0  0
    7.9342   -3.8161    0.0000 C   0  0  0  0  0  0  0  0  0  0  0  0
    9.4220   -1.2110    0.0000 C   0  0  0  0  0  0  0  0  0  0  0  0
    9.9806   -3.2575    0.0000 O   0  0  0  0  0  0  0  0  0  0  0  0
    5.7308    2.6244    0.0000 O   0  0  0  0  0  0  0  0  0  0  0  0
    7.2308    2.6314    0.0000 C   0  0  1  0  0  0  0  0  0  0  0  0
    7.9747    3.9340    0.0000 C   0  0  1  0  0  0  0  0  0  0  0  0
    9.4747    3.9410    0.0000 C   0  0  2  0  0  0  0  0  0  0  0  0
   10.2308    2.6455    0.0000 C   0  0  1  0  0  0  0  0  0  0  0  0
    9.4869    1.3430    0.0000 C   0  0  2  0  0  0  0  0  0  0  0  0
    7.9869    1.3359    0.0000 O   0  0  0  0  0  0  0  0  0  0  0  0
   10.2430    0.0475    0.0000 C   0  0  0  0  0  0  0  0  0  0  0  0
   11.7430    0.0545    0.0000 O   0  0  0  0  0  0  0  0  0  0  0  0
   11.7308    2.6526    0.0000 O   0  0  0  0  0  0  0  0  0  0  0  0
   10.2186    5.2436    0.0000 O   0  0  0  0  0  0  0  0  0  0  0  0
    7.2186    5.2295    0.0000 O   0  0  0  0  0  0  0  0  0  0  0  0
   -0.7130    1.2950    0.0000 H   0  0  0  0  0  0  0  0  0  0  0  0
    0.4992   -1.2974    0.0000 C   0  0  0  0  0  0  0  0  0  0  0  0
   -1.0008   -1.3045    0.0000 C   0  0  0  0  0  0  0  0  0  0  0  0
   -1.7447   -2.6070    0.0000 C   0  0  0  0  0  0  0  0  0  0  0  0
   -0.9886   -3.9025    0.0000 C   0  0  0  0  0  0  0  0  0  0  0  0
    0.5114   -3.8955    0.0000 C   0  0  0  0  0  0  0  0  0  0  0  0
    1.2553   -2.5929    0.0000 C   0  0  0  0  0  0  0  0  0  0  0  0
  1  2  2  0  0  0  0
  1  6  1  0  0  0  0
  2  3  1  0  0  0  0
  3  4  2  0  0  0  0
  4  5  1  0  0  0  0
  5  6  2  0  0  0  0
  5 11  1  0  0  0  0
  6  7  1  0  0  0  0
  7  8  2  0  0  0  0
  8  9  1  0  0  0  0
  9 10  2  0  0  0  0
  9 11  1  0  0  0  0
  1 12  1  0  0  0  0
 13 14  1  0  0  0  0
 14 15  1  0  0  0  0
 14 16  1  6  0  0  0
 16 17  1  0  0  0  0
 16 18  1  0  0  0  0
 16 19  1  0  0  0  0
  2 15  1  0  0  0  0
  3 13  1  0  0  0  0
 21 20  1  6  0  0  0
 21 22  1  0  0  0  0
 21 26  1  0  0  0  0
 22 23  1  0  0  0  0
 22 31  1  1  0  0  0
 23 24  1  0  0  0  0
 23 30  1  6  0  0  0
 24 25  1  0  0  0  0
 24 29  1  1  0  0  0
 25 26  1  0  0  0  0
 25 27  1  6  0  0  0
 27 28  1  0  0  0  0
  4 20  1  0  0  0  0
  8 32  1  0  0  0  0
 33 34  1  0  0  0  0
 33 38  2  0  0  0  0
 34 35  2  0  0  0  0
 35 36  1  0  0  0  0
 36 37  2  0  0  0  0
 37 38  1  0  0  0  0
  7 33  1  0  0  0  0
M  END
> <score_KierA2>
0.517279

$$$$
suggested molecule #44
 MOE2019            2D

 38 42  0  0  1  0  0  0  0  0999 V2000
    3.4992   -1.2833    0.0000 C   0  0  0  0  0  0  0  0  0  1  0  0
    4.9992   -1.2762    0.0000 C   0  0  0  0  0  0  0  0  0  2  0  0
    5.7430    0.0263    0.0000 C   0  0  0  0  0  0  0  0  0  3  0  0
    4.9869    1.3218    0.0000 C   0  0  0  0  0  0  0  0  0  4  0  0
    3.4870    1.3147    0.0000 C   0  0  0  0  0  0  0  0  0  5  0  0
    2.7431    0.0122    0.0000 C   0  0  0  0  0  0  0  0  0  6  0  0
    1.2431    0.0051    0.0000 C   0  0  0  0  0  0  0  0  0  7  0  0
    0.4870    1.3006    0.0000 C   0  0  0  0  0  0  0  0  0  8  0  0
    1.2309    2.6032    0.0000 C   0  0  0  0  0  0  0  0  0  9  0  0
    0.4748    3.8987    0.0000 O   0  0  0  0  0  0  0  0  0 10  0  0
    2.7309    2.6102    0.0000 O   0  0  0  0  0  0  0  0  0 11  0  0
    2.9041   -2.3253    0.0000 H   0  0  0  0  0  0  0  0  0  0  0  0
    7.2117   -0.2787    0.0000 O   0  0  0  0  0  0  0  0  0  0  0  0
    7.3755   -1.7697    0.0000 C   0  0  1  0  0  0  0  0  0  0  0  0
    6.0081   -2.3862    0.0000 C   0  0  0  0  0  0  0  0  0  0  0  0
    8.6781   -2.5136    0.0000 C   0  0  0  0  0  0  0  0  0  0  0  0
    7.9342   -3.8161    0.0000 C   0  0  0  0  0  0  0  0  0  0  0  0
    9.4220   -1.2110    0.0000 C   0  0  0  0  0  0  0  0  0  0  0  0
    9.9806   -3.2575    0.0000 O   0  0  0  0  0  0  0  0  0  0  0  0
    5.7308    2.6244    0.0000 O   0  0  0  0  0  0  0  0  0  0  0  0
    7.2308    2.6314    0.0000 C   0  0  1  0  0  0  0  0  0  0  0  0
    7.9747    3.9340    0.0000 C   0  0  1  0  0  0  0  0  0  0  0  0
    9.4747    3.9410    0.0000 C   0  0  2  0  0  0  0  0  0  0  0  0
   10.2308    2.6455    0.0000 C   0  0  1  0  0  0  0  0  0  0  0  0
    9.4869    1.3430    0.0000 C   0  0  2  0  0  0  0  0  0  0  0  0
    7.9869    1.3359    0.0000 O   0  0  0  0  0  0  0  0  0  0  0  0
   10.2430    0.0475    0.0000 C   0  0  0  0  0  0  0  0  0  0  0  0
   11.7430    0.0545    0.0000 O   0  0  0  0  0  0  0  0  0  0  0  0
   11.7308    2.6526    0.0000 O   0  0  0  0  0  0  0  0  0  0  0  0
   10.2186    5.2436    0.0000 O   0  0  0  0  0  0  0  0  0  0  0  0
    7.2186    5.2295    0.0000 O   0  0  0  0  0  0  0  0  0  0  0  0
   -0.7130    1.2950    0.0000 H   0  0  0  0  0  0  0  0  0  0  0  0
    0.4992   -1.2974    0.0000 C   0  0  0  0  0  0  0  0  0  0  0  0
   -1.0008   -1.3045    0.0000 C   0  0  0  0  0  0  0  0  0  0  0  0
   -1.7447   -2.6070    0.0000 C   0  0  0  0  0  0  0  0  0  0  0  0
   -0.9886   -3.9025    0.0000 C   0  0  0  0  0  0  0  0  0  0  0  0
    0.5114   -3.8955    0.0000 C   0  0  0  0  0  0  0  0  0  0  0  0
    1.2553   -2.5929    0.0000 C   0  0  0  0  0  0  0  0  0  0  0  0
  1  2  2  0  0  0  0
  1  6  1  0  0  0  0
  2  3  1  0  0  0  0
  3  4  2  0  0  0  0
  4  5  1  0  0  0  0
  5  6  2  0  0  0  0
  5 11  1  0  0  0  0
  6  7  1  0  0  0  0
  7  8  2  0  0  0  0
  8  9  1  0  0  0  0
  9 10  2  0  0  0  0
  9 11  1  0  0  0  0
  1 12  1  0  0  0  0
 13 14  1  0  0  0  0
 14 15  1  0  0  0  0
 14 16  1  6  0  0  0
 16 17  1  0  0  0  0
 16 18  1  0  0  0  0
 16 19  1  0  0  0  0
  2 15  1  0  0  0  0
  3 13  1  0  0  0  0
 21 20  1  6  0  0  0
 21 22  1  0  0  0  0
 21 26  1  0  0  0  0
 22 23  1  0  0  0  0
 22 31  1  1  0  0  0
 23 24  1  0  0  0  0
 23 30  1  6  0  0  0
 24 25  1  0  0  0  0
 24 29  1  1  0  0  0
 25 26  1  0  0  0  0
 25 27  1  6  0  0  0
 27 28  1  0  0  0  0
  4 20  1  0  0  0  0
  8 32  1  0  0  0  0
 33 34  1  0  0  0  0
 33 38  2  0  0  0  0
 34 35  2  0  0  0  0
 35 36  1  0  0  0  0
 36 37  2  0  0  0  0
 37 38  1  0  0  0  0
  7 33  1  0  0  0  0
M  END
> <score_KierA3>
0.51292

$$$$
suggested molecule #45
 MOE2019            2D

 38 42  0  0  1  0  0  0  0  0999 V2000
    3.4992   -1.2833    0.0000 C   0  0  0  0  0  0  0  0  0  1  0  0
    4.9992   -1.2762    0.0000 C   0  0  0  0  0  0  0  0  0  2  0  0
    5.7430    0.0263    0.0000 C   0  0  0  0  0  0  0  0  0  3  0  0
    4.9869    1.3218    0.0000 C   0  0  0  0  0  0  0  0  0  4  0  0
    3.4870    1.3147    0.0000 C   0  0  0  0  0  0  0  0  0  5  0  0
    2.7431    0.0122    0.0000 C   0  0  0  0  0  0  0  0  0  6  0  0
    1.2431    0.0051    0.0000 C   0  0  0  0  0  0  0  0  0  7  0  0
    0.4870    1.3006    0.0000 C   0  0  0  0  0  0  0  0  0  8  0  0
    1.2309    2.6032    0.0000 C   0  0  0  0  0  0  0  0  0  9  0  0
    0.4748    3.8987    0.0000 O   0  0  0  0  0  0  0  0  0 10  0  0
    2.7309    2.6102    0.0000 O   0  0  0  0  0  0  0  0  0 11  0  0
    2.9041   -2.3253    0.0000 H   0  0  0  0  0  0  0  0  0  0  0  0
    7.2117   -0.2787    0.0000 O   0  0  0  0  0  0  0  0  0  0  0  0
    7.3755   -1.7697    0.0000 C   0  0  1  0  0  0  0  0  0  0  0  0
    6.0081   -2.3862    0.0000 C   0  0  0  0  0  0  0  0  0  0  0  0
    8.6781   -2.5136    0.0000 C   0  0  0  0  0  0  0  0  0  0  0  0
    7.9342   -3.8161    0.0000 C   0  0  0  0  0  0  0  0  0  0  0  0
    9.4220   -1.2110    0.0000 C   0  0  0  0  0  0  0  0  0  0  0  0
    9.9806   -3.2575    0.0000 O   0  0  0  0  0  0  0  0  0  0  0  0
    5.7308    2.6244    0.0000 O   0  0  0  0  0  0  0  0  0  0  0  0
    7.2308    2.6314    0.0000 C   0  0  1  0  0  0  0  0  0  0  0  0
    7.9747    3.9340    0.0000 C   0  0  1  0  0  0  0  0  0  0  0  0
    9.4747    3.9410    0.0000 C   0  0  2  0  0  0  0  0  0  0  0  0
   10.2308    2.6455    0.0000 C   0  0  1  0  0  0  0  0  0  0  0  0
    9.4869    1.3430    0.0000 C   0  0  2  0  0  0  0  0  0  0  0  0
    7.9869    1.3359    0.0000 O   0  0  0  0  0  0  0  0  0  0  0  0
   10.2430    0.0475    0.0000 C   0  0  0  0  0  0  0  0  0  0  0  0
   11.7430    0.0545    0.0000 O   0  0  0  0  0  0  0  0  0  0  0  0
   11.7308    2.6526    0.0000 O   0  0  0  0  0  0  0  0  0  0  0  0
   10.2186    5.2436    0.0000 O   0  0  0  0  0  0  0  0  0  0  0  0
    7.2186    5.2295    0.0000 O   0  0  0  0  0  0  0  0  0  0  0  0
   -0.7130    1.2950    0.0000 H   0  0  0  0  0  0  0  0  0  0  0  0
    0.4992   -1.2974    0.0000 C   0  0  0  0  0  0  0  0  0  0  0  0
   -1.0008   -1.3045    0.0000 C   0  0  0  0  0  0  0  0  0  0  0  0
   -1.7447   -2.6070    0.0000 C   0  0  0  0  0  0  0  0  0  0  0  0
   -0.9886   -3.9025    0.0000 C   0  0  0  0  0  0  0  0  0  0  0  0
    0.5114   -3.8955    0.0000 C   0  0  0  0  0  0  0  0  0  0  0  0
    1.2553   -2.5929    0.0000 C   0  0  0  0  0  0  0  0  0  0  0  0
  1  2  2  0  0  0  0
  1  6  1  0  0  0  0
  2  3  1  0  0  0  0
  3  4  2  0  0  0  0
  4  5  1  0  0  0  0
  5  6  2  0  0  0  0
  5 11  1  0  0  0  0
  6  7  1  0  0  0  0
  7  8  2  0  0  0  0
  8  9  1  0  0  0  0
  9 10  2  0  0  0  0
  9 11  1  0  0  0  0
  1 12  1  0  0  0  0
 13 14  1  0  0  0  0
 14 15  1  0  0  0  0
 14 16  1  6  0  0  0
 16 17  1  0  0  0  0
 16 18  1  0  0  0  0
 16 19  1  0  0  0  0
  2 15  1  0  0  0  0
  3 13  1  0  0  0  0
 21 20  1  6  0  0  0
 21 22  1  0  0  0  0
 21 26  1  0  0  0  0
 22 23  1  0  0  0  0
 22 31  1  1  0  0  0
 23 24  1  0  0  0  0
 23 30  1  6  0  0  0
 24 25  1  0  0  0  0
 24 29  1  1  0  0  0
 25 26  1  0  0  0  0
 25 27  1  6  0  0  0
 27 28  1  0  0  0  0
  4 20  1  0  0  0  0
  8 32  1  0  0  0  0
 33 34  1  0  0  0  0
 33 38  2  0  0  0  0
 34 35  2  0  0  0  0
 35 36  1  0  0  0  0
 36 37  2  0  0  0  0
 37 38  1  0  0  0  0
  7 33  1  0  0  0  0
M  END
> <score_KierFlex>
0.517234

$$$$
suggested molecule #46
 MOE2019            2D

 43 47  0  0  1  0  0  0  0  0999 V2000
    3.4992   -1.2833    0.0000 C   0  0  0  0  0  0  0  0  0  1  0  0
    4.9992   -1.2762    0.0000 C   0  0  0  0  0  0  0  0  0  2  0  0
    5.7430    0.0263    0.0000 C   0  0  0  0  0  0  0  0  0  3  0  0
    4.9869    1.3218    0.0000 C   0  0  0  0  0  0  0  0  0  4  0  0
    3.4870    1.3147    0.0000 C   0  0  0  0  0  0  0  0  0  5  0  0
    2.7431    0.0122    0.0000 C   0  0  0  0  0  0  0  0  0  6  0  0
    1.2431    0.0051    0.0000 C   0  0  0  0  0  0  0  0  0  7  0  0
    0.4870    1.3006    0.0000 C   0  0  0  0  0  0  0  0  0  8  0  0
    1.2309    2.6032    0.0000 C   0  0  0  0  0  0  0  0  0  9  0  0
    0.4748    3.8987    0.0000 O   0  0  0  0  0  0  0  0  0 10  0  0
    2.7309    2.6102    0.0000 O   0  0  0  0  0  0  0  0  0 11  0  0
    2.9041   -2.3253    0.0000 H   0  0  0  0  0  0  0  0  0  0  0  0
    7.2117   -0.2787    0.0000 O   0  0  0  0  0  0  0  0  0  0  0  0
    7.3755   -1.7697    0.0000 C   0  0  1  0  0  0  0  0  0  0  0  0
    6.0081   -2.3862    0.0000 C   0  0  0  0  0  0  0  0  0  0  0  0
    8.6781   -2.5136    0.0000 C   0  0  0  0  0  0  0  0  0  0  0  0
    7.9342   -3.8161    0.0000 C   0  0  0  0  0  0  0  0  0  0  0  0
    9.9806   -3.2575    0.0000 C   0  0  0  0  0  0  0  0  0  0  0  0
    9.4220   -1.2110    0.0000 O   0  0  0  0  0  0  0  0  0  0  0  0
    5.7308    2.6244    0.0000 O   0  0  0  0  0  0  0  0  0  0  0  0
    7.2308    2.6314    0.0000 C   0  0  1  0  0  0  0  0  0  0  0  0
    7.9747    3.9340    0.0000 C   0  0  1  0  0  0  0  0  0  0  0  0
    9.4747    3.9410    0.0000 C   0  0  2  0  0  0  0  0  0  0  0  0
   10.2308    2.6455    0.0000 C   0  0  1  0  0  0  0  0  0  0  0  0
    9.4869    1.3430    0.0000 C   0  0  2  0  0  0  0  0  0  0  0  0
    7.9869    1.3359    0.0000 O   0  0  0  0  0  0  0  0  0  0  0  0
   10.2430    0.0475    0.0000 C   0  0  0  0  0  0  0  0  0  0  0  0
   11.7430    0.0545    0.0000 O   0  0  0  0  0  0  0  0  0  0  0  0
   11.7308    2.6526    0.0000 O   0  0  0  0  0  0  0  0  0  0  0  0
   10.2186    5.2436    0.0000 O   0  0  0  0  0  0  0  0  0  0  0  0
    7.2186    5.2295    0.0000 O   0  0  0  0  0  0  0  0  0  0  0  0
   -0.7130    1.2950    0.0000 H   0  0  0  0  0  0  0  0  0  0  0  0
   -4.0007   -1.3186    0.0000 C   0  0  0  0  0  0  0  0  0  0  0  0
   -3.2446   -2.6141    0.0000 O   0  0  0  0  0  0  0  0  0  0  0  0
   -1.7447   -2.6070    0.0000 C   0  0  0  0  0  0  0  0  0  0  0  0
   -1.0008   -1.3045    0.0000 C   0  0  0  0  0  0  0  0  0  0  0  0
    0.4992   -1.2974    0.0000 C   0  0  0  0  0  0  0  0  0  0  0  0
    1.2553   -2.5929    0.0000 C   0  0  0  0  0  0  0  0  0  0  0  0
    0.5114   -3.8955    0.0000 C   0  0  0  0  0  0  0  0  0  0  0  0
   -0.9886   -3.9025    0.0000 C   0  0  0  0  0  0  0  0  0  0  0  0
   -1.7324   -5.2051    0.0000 O   0  0  0  0  0  0  0  0  0  0  0  0
    1.2675   -5.1910    0.0000 O   0  0  0  0  0  0  0  0  0  0  0  0
    0.5236   -6.4935    0.0000 C   0  0  0  0  0  0  0  0  0  0  0  0
  1  2  2  0  0  0  0
  1  6  1  0  0  0  0
  2  3  1  0  0  0  0
  3  4  2  0  0  0  0
  4  5  1  0  0  0  0
  5  6  2  0  0  0  0
  5 11  1  0  0  0  0
  6  7  1  0  0  0  0
  7  8  2  0  0  0  0
  8  9  1  0  0  0  0
  9 10  2  0  0  0  0
  9 11  1  0  0  0  0
  1 12  1  0  0  0  0
 13 14  1  0  0  0  0
 14 15  1  0  0  0  0
 14 16  1  6  0  0  0
 16 17  1  0  0  0  0
 16 18  1  0  0  0  0
 16 19  1  0  0  0  0
  2 15  1  0  0  0  0
  3 13  1  0  0  0  0
 21 20  1  6  0  0  0
 21 22  1  0  0  0  0
 21 26  1  0  0  0  0
 22 23  1  0  0  0  0
 22 31  1  1  0  0  0
 23 24  1  0  0  0  0
 23 30  1  6  0  0  0
 24 25  1  0  0  0  0
 24 29  1  1  0  0  0
 25 26  1  0  0  0  0
 25 27  1  6  0  0  0
 27 28  1  0  0  0  0
  4 20  1  0  0  0  0
  8 32  1  0  0  0  0
 33 34  1  0  0  0  0
 34 35  1  0  0  0  0
 35 36  1  0  0  0  0
 35 40  2  0  0  0  0
 36 37  2  0  0  0  0
 37 38  1  0  0  0  0
 38 39  2  0  0  0  0
 39 40  1  0  0  0  0
 39 42  1  0  0  0  0
 40 41  1  0  0  0  0
 42 43  1  0  0  0  0
  7 37  1  0  0  0  0
M  END
> <score_Kier3>
0.511529

$$$$
suggested molecule #47
 MOE2019            2D

 43 47  0  0  1  0  0  0  0  0999 V2000
    3.4992   -1.2833    0.0000 C   0  0  0  0  0  0  0  0  0  1  0  0
    4.9992   -1.2762    0.0000 C   0  0  0  0  0  0  0  0  0  2  0  0
    5.7430    0.0263    0.0000 C   0  0  0  0  0  0  0  0  0  3  0  0
    4.9869    1.3218    0.0000 C   0  0  0  0  0  0  0  0  0  4  0  0
    3.4870    1.3147    0.0000 C   0  0  0  0  0  0  0  0  0  5  0  0
    2.7431    0.0122    0.0000 C   0  0  0  0  0  0  0  0  0  6  0  0
    1.2431    0.0051    0.0000 C   0  0  0  0  0  0  0  0  0  7  0  0
    0.4870    1.3006    0.0000 C   0  0  0  0  0  0  0  0  0  8  0  0
    1.2309    2.6032    0.0000 C   0  0  0  0  0  0  0  0  0  9  0  0
    0.4748    3.8987    0.0000 O   0  0  0  0  0  0  0  0  0 10  0  0
    2.7309    2.6102    0.0000 O   0  0  0  0  0  0  0  0  0 11  0  0
    2.9041   -2.3253    0.0000 H   0  0  0  0  0  0  0  0  0  0  0  0
    7.2117   -0.2787    0.0000 O   0  0  0  0  0  0  0  0  0  0  0  0
    7.3755   -1.7697    0.0000 C   0  0  1  0  0  0  0  0  0  0  0  0
    6.0081   -2.3862    0.0000 C   0  0  0  0  0  0  0  0  0  0  0  0
    8.6781   -2.5136    0.0000 C   0  0  0  0  0  0  0  0  0  0  0  0
    7.9342   -3.8161    0.0000 C   0  0  0  0  0  0  0  0  0  0  0  0
    9.9806   -3.2575    0.0000 C   0  0  0  0  0  0  0  0  0  0  0  0
    9.4220   -1.2110    0.0000 O   0  0  0  0  0  0  0  0  0  0  0  0
    5.7308    2.6244    0.0000 O   0  0  0  0  0  0  0  0  0  0  0  0
    7.2308    2.6314    0.0000 C   0  0  1  0  0  0  0  0  0  0  0  0
    7.9747    3.9340    0.0000 C   0  0  1  0  0  0  0  0  0  0  0  0
    9.4747    3.9410    0.0000 C   0  0  2  0  0  0  0  0  0  0  0  0
   10.2308    2.6455    0.0000 C   0  0  1  0  0  0  0  0  0  0  0  0
    9.4869    1.3430    0.0000 C   0  0  2  0  0  0  0  0  0  0  0  0
    7.9869    1.3359    0.0000 O   0  0  0  0  0  0  0  0  0  0  0  0
   10.2430    0.0475    0.0000 C   0  0  0  0  0  0  0  0  0  0  0  0
   11.7430    0.0545    0.0000 O   0  0  0  0  0  0  0  0  0  0  0  0
   11.7308    2.6526    0.0000 O   0  0  0  0  0  0  0  0  0  0  0  0
   10.2186    5.2436    0.0000 O   0  0  0  0  0  0  0  0  0  0  0  0
    7.2186    5.2295    0.0000 O   0  0  0  0  0  0  0  0  0  0  0  0
   -0.7130    1.2950    0.0000 H   0  0  0  0  0  0  0  0  0  0  0  0
   -4.0007   -1.3186    0.0000 C   0  0  0  0  0  0  0  0  0  0  0  0
   -3.2446   -2.6141    0.0000 O   0  0  0  0  0  0  0  0  0  0  0  0
   -1.7447   -2.6070    0.0000 C   0  0  0  0  0  0  0  0  0  0  0  0
   -1.0008   -1.3045    0.0000 C   0  0  0  0  0  0  0  0  0  0  0  0
    0.4992   -1.2974    0.0000 C   0  0  0  0  0  0  0  0  0  0  0  0
    1.2553   -2.5929    0.0000 C   0  0  0  0  0  0  0  0  0  0  0  0
    0.5114   -3.8955    0.0000 C   0  0  0  0  0  0  0  0  0  0  0  0
   -0.9886   -3.9025    0.0000 C   0  0  0  0  0  0  0  0  0  0  0  0
   -1.7324   -5.2051    0.0000 O   0  0  0  0  0  0  0  0  0  0  0  0
    1.2675   -5.1910    0.0000 O   0  0  0  0  0  0  0  0  0  0  0  0
    0.5236   -6.4935    0.0000 C   0  0  0  0  0  0  0  0  0  0  0  0
  1  2  2  0  0  0  0
  1  6  1  0  0  0  0
  2  3  1  0  0  0  0
  3  4  2  0  0  0  0
  4  5  1  0  0  0  0
  5  6  2  0  0  0  0
  5 11  1  0  0  0  0
  6  7  1  0  0  0  0
  7  8  2  0  0  0  0
  8  9  1  0  0  0  0
  9 10  2  0  0  0  0
  9 11  1  0  0  0  0
  1 12  1  0  0  0  0
 13 14  1  0  0  0  0
 14 15  1  0  0  0  0
 14 16  1  6  0  0  0
 16 17  1  0  0  0  0
 16 18  1  0  0  0  0
 16 19  1  0  0  0  0
  2 15  1  0  0  0  0
  3 13  1  0  0  0  0
 21 20  1  6  0  0  0
 21 22  1  0  0  0  0
 21 26  1  0  0  0  0
 22 23  1  0  0  0  0
 22 31  1  1  0  0  0
 23 24  1  0  0  0  0
 23 30  1  6  0  0  0
 24 25  1  0  0  0  0
 24 29  1  1  0  0  0
 25 26  1  0  0  0  0
 25 27  1  6  0  0  0
 27 28  1  0  0  0  0
  4 20  1  0  0  0  0
  8 32  1  0  0  0  0
 33 34  1  0  0  0  0
 34 35  1  0  0  0  0
 35 36  1  0  0  0  0
 35 40  2  0  0  0  0
 36 37  2  0  0  0  0
 37 38  1  0  0  0  0
 38 39  2  0  0  0  0
 39 40  1  0  0  0  0
 39 42  1  0  0  0  0
 40 41  1  0  0  0  0
 42 43  1  0  0  0  0
  7 37  1  0  0  0  0
M  END
> <score_KierA3>
0.512135

$$$$
suggested molecule #48
 MOE2019            2D

 43 47  0  0  1  0  0  0  0  0999 V2000
    3.4992   -1.2833    0.0000 C   0  0  0  0  0  0  0  0  0  1  0  0
    4.9992   -1.2762    0.0000 C   0  0  0  0  0  0  0  0  0  2  0  0
    5.7430    0.0263    0.0000 C   0  0  0  0  0  0  0  0  0  3  0  0
    4.9869    1.3218    0.0000 C   0  0  0  0  0  0  0  0  0  4  0  0
    3.4870    1.3147    0.0000 C   0  0  0  0  0  0  0  0  0  5  0  0
    2.7431    0.0122    0.0000 C   0  0  0  0  0  0  0  0  0  6  0  0
    1.2431    0.0051    0.0000 C   0  0  0  0  0  0  0  0  0  7  0  0
    0.4870    1.3006    0.0000 C   0  0  0  0  0  0  0  0  0  8  0  0
    1.2309    2.6032    0.0000 C   0  0  0  0  0  0  0  0  0  9  0  0
    0.4748    3.8987    0.0000 O   0  0  0  0  0  0  0  0  0 10  0  0
    2.7309    2.6102    0.0000 O   0  0  0  0  0  0  0  0  0 11  0  0
    2.9041   -2.3253    0.0000 H   0  0  0  0  0  0  0  0  0  0  0  0
    7.2117   -0.2787    0.0000 O   0  0  0  0  0  0  0  0  0  0  0  0
    7.3755   -1.7697    0.0000 C   0  0  1  0  0  0  0  0  0  0  0  0
    6.0081   -2.3862    0.0000 C   0  0  0  0  0  0  0  0  0  0  0  0
    8.6781   -2.5136    0.0000 C   0  0  0  0  0  0  0  0  0  0  0  0
    7.9342   -3.8161    0.0000 C   0  0  0  0  0  0  0  0  0  0  0  0
    9.9806   -3.2575    0.0000 C   0  0  0  0  0  0  0  0  0  0  0  0
    9.4220   -1.2110    0.0000 O   0  0  0  0  0  0  0  0  0  0  0  0
    5.7308    2.6244    0.0000 O   0  0  0  0  0  0  0  0  0  0  0  0
    7.2308    2.6314    0.0000 C   0  0  1  0  0  0  0  0  0  0  0  0
    7.9747    3.9340    0.0000 C   0  0  1  0  0  0  0  0  0  0  0  0
    9.4747    3.9410    0.0000 C   0  0  2  0  0  0  0  0  0  0  0  0
   10.2308    2.6455    0.0000 C   0  0  1  0  0  0  0  0  0  0  0  0
    9.4869    1.3430    0.0000 C   0  0  2  0  0  0  0  0  0  0  0  0
    7.9869    1.3359    0.0000 O   0  0  0  0  0  0  0  0  0  0  0  0
   10.2430    0.0475    0.0000 C   0  0  0  0  0  0  0  0  0  0  0  0
   11.7430    0.0545    0.0000 O   0  0  0  0  0  0  0  0  0  0  0  0
   11.7308    2.6526    0.0000 O   0  0  0  0  0  0  0  0  0  0  0  0
   10.2186    5.2436    0.0000 O   0  0  0  0  0  0  0  0  0  0  0  0
    7.2186    5.2295    0.0000 O   0  0  0  0  0  0  0  0  0  0  0  0
   -0.7130    1.2950    0.0000 H   0  0  0  0  0  0  0  0  0  0  0  0
   -4.0007   -1.3186    0.0000 C   0  0  0  0  0  0  0  0  0  0  0  0
   -3.2446   -2.6141    0.0000 O   0  0  0  0  0  0  0  0  0  0  0  0
   -1.7447   -2.6070    0.0000 C   0  0  0  0  0  0  0  0  0  0  0  0
   -1.0008   -1.3045    0.0000 C   0  0  0  0  0  0  0  0  0  0  0  0
    0.4992   -1.2974    0.0000 C   0  0  0  0  0  0  0  0  0  0  0  0
    1.2553   -2.5929    0.0000 C   0  0  0  0  0  0  0  0  0  0  0  0
    0.5114   -3.8955    0.0000 C   0  0  0  0  0  0  0  0  0  0  0  0
   -0.9886   -3.9025    0.0000 C   0  0  0  0  0  0  0  0  0  0  0  0
   -1.7324   -5.2051    0.0000 O   0  0  0  0  0  0  0  0  0  0  0  0
    1.2675   -5.1910    0.0000 O   0  0  0  0  0  0  0  0  0  0  0  0
    0.5236   -6.4935    0.0000 C   0  0  0  0  0  0  0  0  0  0  0  0
  1  2  2  0  0  0  0
  1  6  1  0  0  0  0
  2  3  1  0  0  0  0
  3  4  2  0  0  0  0
  4  5  1  0  0  0  0
  5  6  2  0  0  0  0
  5 11  1  0  0  0  0
  6  7  1  0  0  0  0
  7  8  2  0  0  0  0
  8  9  1  0  0  0  0
  9 10  2  0  0  0  0
  9 11  1  0  0  0  0
  1 12  1  0  0  0  0
 13 14  1  0  0  0  0
 14 15  1  0  0  0  0
 14 16  1  6  0  0  0
 16 17  1  0  0  0  0
 16 18  1  0  0  0  0
 16 19  1  0  0  0  0
  2 15  1  0  0  0  0
  3 13  1  0  0  0  0
 21 20  1  6  0  0  0
 21 22  1  0  0  0  0
 21 26  1  0  0  0  0
 22 23  1  0  0  0  0
 22 31  1  1  0  0  0
 23 24  1  0  0  0  0
 23 30  1  6  0  0  0
 24 25  1  0  0  0  0
 24 29  1  1  0  0  0
 25 26  1  0  0  0  0
 25 27  1  6  0  0  0
 27 28  1  0  0  0  0
  4 20  1  0  0  0  0
  8 32  1  0  0  0  0
 33 34  1  0  0  0  0
 34 35  1  0  0  0  0
 35 36  1  0  0  0  0
 35 40  2  0  0  0  0
 36 37  2  0  0  0  0
 37 38  1  0  0  0  0
 38 39  2  0  0  0  0
 39 40  1  0  0  0  0
 39 42  1  0  0  0  0
 40 41  1  0  0  0  0
 42 43  1  0  0  0  0
  7 37  1  0  0  0  0
M  END
> <score_KierFlex>
0.51632

$$$$
suggested molecule #49
 MOE2019            2D

 37 40  0  0  1  0  0  0  0  0999 V2000
    3.4992   -1.2833    0.0000 C   0  0  0  0  0  0  0  0  0  1  0  0
    4.9992   -1.2762    0.0000 C   0  0  0  0  0  0  0  0  0  2  0  0
    5.7430    0.0263    0.0000 C   0  0  0  0  0  0  0  0  0  3  0  0
    4.9869    1.3218    0.0000 C   0  0  0  0  0  0  0  0  0  4  0  0
    3.4870    1.3147    0.0000 C   0  0  0  0  0  0  0  0  0  5  0  0
    2.7431    0.0122    0.0000 C   0  0  0  0  0  0  0  0  0  6  0  0
    1.2431    0.0051    0.0000 C   0  0  0  0  0  0  0  0  0  7  0  0
    0.4870    1.3006    0.0000 C   0  0  0  0  0  0  0  0  0  8  0  0
    1.2309    2.6032    0.0000 C   0  0  0  0  0  0  0  0  0  9  0  0
    0.4748    3.8987    0.0000 O   0  0  0  0  0  0  0  0  0 10  0  0
    2.7309    2.6102    0.0000 O   0  0  0  0  0  0  0  0  0 11  0  0
    2.9041   -2.3253    0.0000 H   0  0  0  0  0  0  0  0  0  0  0  0
    7.2117   -0.2787    0.0000 O   0  0  0  0  0  0  0  0  0  0  0  0
    7.3755   -1.7697    0.0000 C   0  0  1  0  0  0  0  0  0  0  0  0
    6.0081   -2.3862    0.0000 C   0  0  0  0  0  0  0  0  0  0  0  0
    8.6781   -2.5136    0.0000 C   0  0  0  0  0  0  0  0  0  0  0  0
    9.9806   -3.2575    0.0000 C   0  0  0  0  0  0  0  0  0  0  0  0
    7.9342   -3.8161    0.0000 C   0  0  0  0  0  0  0  0  0  0  0  0
    9.4220   -1.2110    0.0000 O   0  0  0  0  0  0  0  0  0  0  0  0
    5.7308    2.6244    0.0000 O   0  0  0  0  0  0  0  0  0  0  0  0
    7.2308    2.6314    0.0000 C   0  0  1  0  0  0  0  0  0  0  0  0
    7.9747    3.9340    0.0000 C   0  0  1  0  0  0  0  0  0  0  0  0
    9.4747    3.9410    0.0000 C   0  0  2  0  0  0  0  0  0  0  0  0
   10.2308    2.6455    0.0000 C   0  0  1  0  0  0  0  0  0  0  0  0
    9.4869    1.3430    0.0000 C   0  0  2  0  0  0  0  0  0  0  0  0
    7.9869    1.3359    0.0000 O   0  0  0  0  0  0  0  0  0  0  0  0
   10.2430    0.0475    0.0000 C   0  0  0  0  0  0  0  0  0  0  0  0
   11.7430    0.0545    0.0000 O   0  0  0  0  0  0  0  0  0  0  0  0
   11.7308    2.6526    0.0000 O   0  0  0  0  0  0  0  0  0  0  0  0
   10.2186    5.2436    0.0000 O   0  0  0  0  0  0  0  0  0  0  0  0
    7.2186    5.2295    0.0000 O   0  0  0  0  0  0  0  0  0  0  0  0
   -0.7130    1.2950    0.0000 H   0  0  0  0  0  0  0  0  0  0  0  0
    0.4992   -1.2974    0.0000 C   0  0  0  0  0  0  0  0  0  0  0  0
   -1.0008   -1.3045    0.0000 C   0  0  0  0  0  0  0  0  0  0  0  0
   -1.7447   -2.6070    0.0000 C   0  0  0  0  0  0  0  0  0  0  0  0
   -3.2446   -2.6141    0.0000 O   0  0  0  0  0  0  0  0  0  0  0  0
   -0.9886   -3.9025    0.0000 O   0  0  0  0  0  0  0  0  0  0  0  0
  1  2  2  0  0  0  0
  1  6  1  0  0  0  0
  2  3  1  0  0  0  0
  3  4  2  0  0  0  0
  4  5  1  0  0  0  0
  5  6  2  0  0  0  0
  5 11  1  0  0  0  0
  6  7  1  0  0  0  0
  7  8  2  0  0  0  0
  8  9  1  0  0  0  0
  9 10  2  0  0  0  0
  9 11  1  0  0  0  0
  1 12  1  0  0  0  0
 13 14  1  0  0  0  0
 14 15  1  0  0  0  0
 14 16  1  6  0  0  0
 16 17  1  0  0  0  0
 16 18  1  0  0  0  0
 16 19  1  0  0  0  0
  2 15  1  0  0  0  0
  3 13  1  0  0  0  0
 21 20  1  6  0  0  0
 21 22  1  0  0  0  0
 21 26  1  0  0  0  0
 22 23  1  0  0  0  0
 22 31  1  1  0  0  0
 23 24  1  0  0  0  0
 23 30  1  6  0  0  0
 24 25  1  0  0  0  0
 24 29  1  1  0  0  0
 25 26  1  0  0  0  0
 25 27  1  6  0  0  0
 27 28  1  0  0  0  0
  4 20  1  0  0  0  0
  8 32  1  0  0  0  0
 33 34  1  0  0  0  0
 34 35  1  0  0  0  0
 35 36  2  0  0  0  0
 35 37  1  0  0  0  0
  7 33  1  0  0  0  0
M  END
> <score_Kier1>
0.517718

$$$$
suggested molecule #50
 MOE2019            2D

 37 40  0  0  1  0  0  0  0  0999 V2000
    3.4992   -1.2833    0.0000 C   0  0  0  0  0  0  0  0  0  1  0  0
    4.9992   -1.2762    0.0000 C   0  0  0  0  0  0  0  0  0  2  0  0
    5.7430    0.0263    0.0000 C   0  0  0  0  0  0  0  0  0  3  0  0
    4.9869    1.3218    0.0000 C   0  0  0  0  0  0  0  0  0  4  0  0
    3.4870    1.3147    0.0000 C   0  0  0  0  0  0  0  0  0  5  0  0
    2.7431    0.0122    0.0000 C   0  0  0  0  0  0  0  0  0  6  0  0
    1.2431    0.0051    0.0000 C   0  0  0  0  0  0  0  0  0  7  0  0
    0.4870    1.3006    0.0000 C   0  0  0  0  0  0  0  0  0  8  0  0
    1.2309    2.6032    0.0000 C   0  0  0  0  0  0  0  0  0  9  0  0
    0.4748    3.8987    0.0000 O   0  0  0  0  0  0  0  0  0 10  0  0
    2.7309    2.6102    0.0000 O   0  0  0  0  0  0  0  0  0 11  0  0
    2.9041   -2.3253    0.0000 H   0  0  0  0  0  0  0  0  0  0  0  0
    7.2117   -0.2787    0.0000 O   0  0  0  0  0  0  0  0  0  0  0  0
    7.3755   -1.7697    0.0000 C   0  0  1  0  0  0  0  0  0  0  0  0
    6.0081   -2.3862    0.0000 C   0  0  0  0  0  0  0  0  0  0  0  0
    8.6781   -2.5136    0.0000 C   0  0  0  0  0  0  0  0  0  0  0  0
    9.9806   -3.2575    0.0000 C   0  0  0  0  0  0  0  0  0  0  0  0
    7.9342   -3.8161    0.0000 C   0  0  0  0  0  0  0  0  0  0  0  0
    9.4220   -1.2110    0.0000 O   0  0  0  0  0  0  0  0  0  0  0  0
    5.7308    2.6244    0.0000 O   0  0  0  0  0  0  0  0  0  0  0  0
    7.2308    2.6314    0.0000 C   0  0  1  0  0  0  0  0  0  0  0  0
    7.9747    3.9340    0.0000 C   0  0  1  0  0  0  0  0  0  0  0  0
    9.4747    3.9410    0.0000 C   0  0  2  0  0  0  0  0  0  0  0  0
   10.2308    2.6455    0.0000 C   0  0  1  0  0  0  0  0  0  0  0  0
    9.4869    1.3430    0.0000 C   0  0  2  0  0  0  0  0  0  0  0  0
    7.9869    1.3359    0.0000 O   0  0  0  0  0  0  0  0  0  0  0  0
   10.2430    0.0475    0.0000 C   0  0  0  0  0  0  0  0  0  0  0  0
   11.7430    0.0545    0.0000 O   0  0  0  0  0  0  0  0  0  0  0  0
   11.7308    2.6526    0.0000 O   0  0  0  0  0  0  0  0  0  0  0  0
   10.2186    5.2436    0.0000 O   0  0  0  0  0  0  0  0  0  0  0  0
    7.2186    5.2295    0.0000 O   0  0  0  0  0  0  0  0  0  0  0  0
   -0.7130    1.2950    0.0000 H   0  0  0  0  0  0  0  0  0  0  0  0
    0.4992   -1.2974    0.0000 C   0  0  0  0  0  0  0  0  0  0  0  0
   -1.0008   -1.3045    0.0000 C   0  0  0  0  0  0  0  0  0  0  0  0
   -1.7447   -2.6070    0.0000 C   0  0  0  0  0  0  0  0  0  0  0  0
   -3.2446   -2.6141    0.0000 O   0  0  0  0  0  0  0  0  0  0  0  0
   -0.9886   -3.9025    0.0000 O   0  0  0  0  0  0  0  0  0  0  0  0
  1  2  2  0  0  0  0
  1  6  1  0  0  0  0
  2  3  1  0  0  0  0
  3  4  2  0  0  0  0
  4  5  1  0  0  0  0
  5  6  2  0  0  0  0
  5 11  1  0  0  0  0
  6  7  1  0  0  0  0
  7  8  2  0  0  0  0
  8  9  1  0  0  0  0
  9 10  2  0  0  0  0
  9 11  1  0  0  0  0
  1 12  1  0  0  0  0
 13 14  1  0  0  0  0
 14 15  1  0  0  0  0
 14 16  1  6  0  0  0
 16 17  1  0  0  0  0
 16 18  1  0  0  0  0
 16 19  1  0  0  0  0
  2 15  1  0  0  0  0
  3 13  1  0  0  0  0
 21 20  1  6  0  0  0
 21 22  1  0  0  0  0
 21 26  1  0  0  0  0
 22 23  1  0  0  0  0
 22 31  1  1  0  0  0
 23 24  1  0  0  0  0
 23 30  1  6  0  0  0
 24 25  1  0  0  0  0
 24 29  1  1  0  0  0
 25 26  1  0  0  0  0
 25 27  1  6  0  0  0
 27 28  1  0  0  0  0
  4 20  1  0  0  0  0
  8 32  1  0  0  0  0
 33 34  1  0  0  0  0
 34 35  1  0  0  0  0
 35 36  2  0  0  0  0
 35 37  1  0  0  0  0
  7 33  1  0  0  0  0
M  END
> <score_Kier2>
0.516466

$$$$
suggested molecule #51
 MOE2019            2D

 37 40  0  0  1  0  0  0  0  0999 V2000
    3.4992   -1.2833    0.0000 C   0  0  0  0  0  0  0  0  0  1  0  0
    4.9992   -1.2762    0.0000 C   0  0  0  0  0  0  0  0  0  2  0  0
    5.7430    0.0263    0.0000 C   0  0  0  0  0  0  0  0  0  3  0  0
    4.9869    1.3218    0.0000 C   0  0  0  0  0  0  0  0  0  4  0  0
    3.4870    1.3147    0.0000 C   0  0  0  0  0  0  0  0  0  5  0  0
    2.7431    0.0122    0.0000 C   0  0  0  0  0  0  0  0  0  6  0  0
    1.2431    0.0051    0.0000 C   0  0  0  0  0  0  0  0  0  7  0  0
    0.4870    1.3006    0.0000 C   0  0  0  0  0  0  0  0  0  8  0  0
    1.2309    2.6032    0.0000 C   0  0  0  0  0  0  0  0  0  9  0  0
    0.4748    3.8987    0.0000 O   0  0  0  0  0  0  0  0  0 10  0  0
    2.7309    2.6102    0.0000 O   0  0  0  0  0  0  0  0  0 11  0  0
    2.9041   -2.3253    0.0000 H   0  0  0  0  0  0  0  0  0  0  0  0
    7.2117   -0.2787    0.0000 O   0  0  0  0  0  0  0  0  0  0  0  0
    7.3755   -1.7697    0.0000 C   0  0  1  0  0  0  0  0  0  0  0  0
    6.0081   -2.3862    0.0000 C   0  0  0  0  0  0  0  0  0  0  0  0
    8.6781   -2.5136    0.0000 C   0  0  0  0  0  0  0  0  0  0  0  0
    9.9806   -3.2575    0.0000 C   0  0  0  0  0  0  0  0  0  0  0  0
    7.9342   -3.8161    0.0000 C   0  0  0  0  0  0  0  0  0  0  0  0
    9.4220   -1.2110    0.0000 O   0  0  0  0  0  0  0  0  0  0  0  0
    5.7308    2.6244    0.0000 O   0  0  0  0  0  0  0  0  0  0  0  0
    7.2308    2.6314    0.0000 C   0  0  1  0  0  0  0  0  0  0  0  0
    7.9747    3.9340    0.0000 C   0  0  1  0  0  0  0  0  0  0  0  0
    9.4747    3.9410    0.0000 C   0  0  2  0  0  0  0  0  0  0  0  0
   10.2308    2.6455    0.0000 C   0  0  1  0  0  0  0  0  0  0  0  0
    9.4869    1.3430    0.0000 C   0  0  2  0  0  0  0  0  0  0  0  0
    7.9869    1.3359    0.0000 O   0  0  0  0  0  0  0  0  0  0  0  0
   10.2430    0.0475    0.0000 C   0  0  0  0  0  0  0  0  0  0  0  0
   11.7430    0.0545    0.0000 O   0  0  0  0  0  0  0  0  0  0  0  0
   11.7308    2.6526    0.0000 O   0  0  0  0  0  0  0  0  0  0  0  0
   10.2186    5.2436    0.0000 O   0  0  0  0  0  0  0  0  0  0  0  0
    7.2186    5.2295    0.0000 O   0  0  0  0  0  0  0  0  0  0  0  0
   -0.7130    1.2950    0.0000 H   0  0  0  0  0  0  0  0  0  0  0  0
    0.4992   -1.2974    0.0000 C   0  0  0  0  0  0  0  0  0  0  0  0
   -1.0008   -1.3045    0.0000 C   0  0  0  0  0  0  0  0  0  0  0  0
   -1.7447   -2.6070    0.0000 C   0  0  0  0  0  0  0  0  0  0  0  0
   -3.2446   -2.6141    0.0000 O   0  0  0  0  0  0  0  0  0  0  0  0
   -0.9886   -3.9025    0.0000 O   0  0  0  0  0  0  0  0  0  0  0  0
  1  2  2  0  0  0  0
  1  6  1  0  0  0  0
  2  3  1  0  0  0  0
  3  4  2  0  0  0  0
  4  5  1  0  0  0  0
  5  6  2  0  0  0  0
  5 11  1  0  0  0  0
  6  7  1  0  0  0  0
  7  8  2  0  0  0  0
  8  9  1  0  0  0  0
  9 10  2  0  0  0  0
  9 11  1  0  0  0  0
  1 12  1  0  0  0  0
 13 14  1  0  0  0  0
 14 15  1  0  0  0  0
 14 16  1  6  0  0  0
 16 17  1  0  0  0  0
 16 18  1  0  0  0  0
 16 19  1  0  0  0  0
  2 15  1  0  0  0  0
  3 13  1  0  0  0  0
 21 20  1  6  0  0  0
 21 22  1  0  0  0  0
 21 26  1  0  0  0  0
 22 23  1  0  0  0  0
 22 31  1  1  0  0  0
 23 24  1  0  0  0  0
 23 30  1  6  0  0  0
 24 25  1  0  0  0  0
 24 29  1  1  0  0  0
 25 26  1  0  0  0  0
 25 27  1  6  0  0  0
 27 28  1  0  0  0  0
  4 20  1  0  0  0  0
  8 32  1  0  0  0  0
 33 34  1  0  0  0  0
 34 35  1  0  0  0  0
 35 36  2  0  0  0  0
 35 37  1  0  0  0  0
  7 33  1  0  0  0  0
M  END
> <score_Kier3>
0.511564

$$$$
suggested molecule #52
 MOE2019            2D

 37 40  0  0  1  0  0  0  0  0999 V2000
    3.4992   -1.2833    0.0000 C   0  0  0  0  0  0  0  0  0  1  0  0
    4.9992   -1.2762    0.0000 C   0  0  0  0  0  0  0  0  0  2  0  0
    5.7430    0.0263    0.0000 C   0  0  0  0  0  0  0  0  0  3  0  0
    4.9869    1.3218    0.0000 C   0  0  0  0  0  0  0  0  0  4  0  0
    3.4870    1.3147    0.0000 C   0  0  0  0  0  0  0  0  0  5  0  0
    2.7431    0.0122    0.0000 C   0  0  0  0  0  0  0  0  0  6  0  0
    1.2431    0.0051    0.0000 C   0  0  0  0  0  0  0  0  0  7  0  0
    0.4870    1.3006    0.0000 C   0  0  0  0  0  0  0  0  0  8  0  0
    1.2309    2.6032    0.0000 C   0  0  0  0  0  0  0  0  0  9  0  0
    0.4748    3.8987    0.0000 O   0  0  0  0  0  0  0  0  0 10  0  0
    2.7309    2.6102    0.0000 O   0  0  0  0  0  0  0  0  0 11  0  0
    2.9041   -2.3253    0.0000 H   0  0  0  0  0  0  0  0  0  0  0  0
    7.2117   -0.2787    0.0000 O   0  0  0  0  0  0  0  0  0  0  0  0
    7.3755   -1.7697    0.0000 C   0  0  1  0  0  0  0  0  0  0  0  0
    6.0081   -2.3862    0.0000 C   0  0  0  0  0  0  0  0  0  0  0  0
    8.6781   -2.5136    0.0000 C   0  0  0  0  0  0  0  0  0  0  0  0
    9.9806   -3.2575    0.0000 C   0  0  0  0  0  0  0  0  0  0  0  0
    7.9342   -3.8161    0.0000 C   0  0  0  0  0  0  0  0  0  0  0  0
    9.4220   -1.2110    0.0000 O   0  0  0  0  0  0  0  0  0  0  0  0
    5.7308    2.6244    0.0000 O   0  0  0  0  0  0  0  0  0  0  0  0
    7.2308    2.6314    0.0000 C   0  0  1  0  0  0  0  0  0  0  0  0
    7.9747    3.9340    0.0000 C   0  0  1  0  0  0  0  0  0  0  0  0
    9.4747    3.9410    0.0000 C   0  0  2  0  0  0  0  0  0  0  0  0
   10.2308    2.6455    0.0000 C   0  0  1  0  0  0  0  0  0  0  0  0
    9.4869    1.3430    0.0000 C   0  0  2  0  0  0  0  0  0  0  0  0
    7.9869    1.3359    0.0000 O   0  0  0  0  0  0  0  0  0  0  0  0
   10.2430    0.0475    0.0000 C   0  0  0  0  0  0  0  0  0  0  0  0
   11.7430    0.0545    0.0000 O   0  0  0  0  0  0  0  0  0  0  0  0
   11.7308    2.6526    0.0000 O   0  0  0  0  0  0  0  0  0  0  0  0
   10.2186    5.2436    0.0000 O   0  0  0  0  0  0  0  0  0  0  0  0
    7.2186    5.2295    0.0000 O   0  0  0  0  0  0  0  0  0  0  0  0
   -0.7130    1.2950    0.0000 H   0  0  0  0  0  0  0  0  0  0  0  0
    0.4992   -1.2974    0.0000 C   0  0  0  0  0  0  0  0  0  0  0  0
   -1.0008   -1.3045    0.0000 C   0  0  0  0  0  0  0  0  0  0  0  0
   -1.7447   -2.6070    0.0000 C   0  0  0  0  0  0  0  0  0  0  0  0
   -3.2446   -2.6141    0.0000 O   0  0  0  0  0  0  0  0  0  0  0  0
   -0.9886   -3.9025    0.0000 O   0  0  0  0  0  0  0  0  0  0  0  0
  1  2  2  0  0  0  0
  1  6  1  0  0  0  0
  2  3  1  0  0  0  0
  3  4  2  0  0  0  0
  4  5  1  0  0  0  0
  5  6  2  0  0  0  0
  5 11  1  0  0  0  0
  6  7  1  0  0  0  0
  7  8  2  0  0  0  0
  8  9  1  0  0  0  0
  9 10  2  0  0  0  0
  9 11  1  0  0  0  0
  1 12  1  0  0  0  0
 13 14  1  0  0  0  0
 14 15  1  0  0  0  0
 14 16  1  6  0  0  0
 16 17  1  0  0  0  0
 16 18  1  0  0  0  0
 16 19  1  0  0  0  0
  2 15  1  0  0  0  0
  3 13  1  0  0  0  0
 21 20  1  6  0  0  0
 21 22  1  0  0  0  0
 21 26  1  0  0  0  0
 22 23  1  0  0  0  0
 22 31  1  1  0  0  0
 23 24  1  0  0  0  0
 23 30  1  6  0  0  0
 24 25  1  0  0  0  0
 24 29  1  1  0  0  0
 25 26  1  0  0  0  0
 25 27  1  6  0  0  0
 27 28  1  0  0  0  0
  4 20  1  0  0  0  0
  8 32  1  0  0  0  0
 33 34  1  0  0  0  0
 34 35  1  0  0  0  0
 35 36  2  0  0  0  0
 35 37  1  0  0  0  0
  7 33  1  0  0  0  0
M  END
> <score_KierA1>
0.517646

$$$$
suggested molecule #53
 MOE2019            2D

 37 40  0  0  1  0  0  0  0  0999 V2000
    3.4992   -1.2833    0.0000 C   0  0  0  0  0  0  0  0  0  1  0  0
    4.9992   -1.2762    0.0000 C   0  0  0  0  0  0  0  0  0  2  0  0
    5.7430    0.0263    0.0000 C   0  0  0  0  0  0  0  0  0  3  0  0
    4.9869    1.3218    0.0000 C   0  0  0  0  0  0  0  0  0  4  0  0
    3.4870    1.3147    0.0000 C   0  0  0  0  0  0  0  0  0  5  0  0
    2.7431    0.0122    0.0000 C   0  0  0  0  0  0  0  0  0  6  0  0
    1.2431    0.0051    0.0000 C   0  0  0  0  0  0  0  0  0  7  0  0
    0.4870    1.3006    0.0000 C   0  0  0  0  0  0  0  0  0  8  0  0
    1.2309    2.6032    0.0000 C   0  0  0  0  0  0  0  0  0  9  0  0
    0.4748    3.8987    0.0000 O   0  0  0  0  0  0  0  0  0 10  0  0
    2.7309    2.6102    0.0000 O   0  0  0  0  0  0  0  0  0 11  0  0
    2.9041   -2.3253    0.0000 H   0  0  0  0  0  0  0  0  0  0  0  0
    7.2117   -0.2787    0.0000 O   0  0  0  0  0  0  0  0  0  0  0  0
    7.3755   -1.7697    0.0000 C   0  0  1  0  0  0  0  0  0  0  0  0
    6.0081   -2.3862    0.0000 C   0  0  0  0  0  0  0  0  0  0  0  0
    8.6781   -2.5136    0.0000 C   0  0  0  0  0  0  0  0  0  0  0  0
    9.9806   -3.2575    0.0000 C   0  0  0  0  0  0  0  0  0  0  0  0
    7.9342   -3.8161    0.0000 C   0  0  0  0  0  0  0  0  0  0  0  0
    9.4220   -1.2110    0.0000 O   0  0  0  0  0  0  0  0  0  0  0  0
    5.7308    2.6244    0.0000 O   0  0  0  0  0  0  0  0  0  0  0  0
    7.2308    2.6314    0.0000 C   0  0  1  0  0  0  0  0  0  0  0  0
    7.9747    3.9340    0.0000 C   0  0  1  0  0  0  0  0  0  0  0  0
    9.4747    3.9410    0.0000 C   0  0  2  0  0  0  0  0  0  0  0  0
   10.2308    2.6455    0.0000 C   0  0  1  0  0  0  0  0  0  0  0  0
    9.4869    1.3430    0.0000 C   0  0  2  0  0  0  0  0  0  0  0  0
    7.9869    1.3359    0.0000 O   0  0  0  0  0  0  0  0  0  0  0  0
   10.2430    0.0475    0.0000 C   0  0  0  0  0  0  0  0  0  0  0  0
   11.7430    0.0545    0.0000 O   0  0  0  0  0  0  0  0  0  0  0  0
   11.7308    2.6526    0.0000 O   0  0  0  0  0  0  0  0  0  0  0  0
   10.2186    5.2436    0.0000 O   0  0  0  0  0  0  0  0  0  0  0  0
    7.2186    5.2295    0.0000 O   0  0  0  0  0  0  0  0  0  0  0  0
   -0.7130    1.2950    0.0000 H   0  0  0  0  0  0  0  0  0  0  0  0
    0.4992   -1.2974    0.0000 C   0  0  0  0  0  0  0  0  0  0  0  0
   -1.0008   -1.3045    0.0000 C   0  0  0  0  0  0  0  0  0  0  0  0
   -1.7447   -2.6070    0.0000 C   0  0  0  0  0  0  0  0  0  0  0  0
   -3.2446   -2.6141    0.0000 O   0  0  0  0  0  0  0  0  0  0  0  0
   -0.9886   -3.9025    0.0000 O   0  0  0  0  0  0  0  0  0  0  0  0
  1  2  2  0  0  0  0
  1  6  1  0  0  0  0
  2  3  1  0  0  0  0
  3  4  2  0  0  0  0
  4  5  1  0  0  0  0
  5  6  2  0  0  0  0
  5 11  1  0  0  0  0
  6  7  1  0  0  0  0
  7  8  2  0  0  0  0
  8  9  1  0  0  0  0
  9 10  2  0  0  0  0
  9 11  1  0  0  0  0
  1 12  1  0  0  0  0
 13 14  1  0  0  0  0
 14 15  1  0  0  0  0
 14 16  1  6  0  0  0
 16 17  1  0  0  0  0
 16 18  1  0  0  0  0
 16 19  1  0  0  0  0
  2 15  1  0  0  0  0
  3 13  1  0  0  0  0
 21 20  1  6  0  0  0
 21 22  1  0  0  0  0
 21 26  1  0  0  0  0
 22 23  1  0  0  0  0
 22 31  1  1  0  0  0
 23 24  1  0  0  0  0
 23 30  1  6  0  0  0
 24 25  1  0  0  0  0
 24 29  1  1  0  0  0
 25 26  1  0  0  0  0
 25 27  1  6  0  0  0
 27 28  1  0  0  0  0
  4 20  1  0  0  0  0
  8 32  1  0  0  0  0
 33 34  1  0  0  0  0
 34 35  1  0  0  0  0
 35 36  2  0  0  0  0
 35 37  1  0  0  0  0
  7 33  1  0  0  0  0
M  END
> <score_KierA2>
0.516752

$$$$
suggested molecule #54
 MOE2019            2D

 37 40  0  0  1  0  0  0  0  0999 V2000
    3.4992   -1.2833    0.0000 C   0  0  0  0  0  0  0  0  0  1  0  0
    4.9992   -1.2762    0.0000 C   0  0  0  0  0  0  0  0  0  2  0  0
    5.7430    0.0263    0.0000 C   0  0  0  0  0  0  0  0  0  3  0  0
    4.9869    1.3218    0.0000 C   0  0  0  0  0  0  0  0  0  4  0  0
    3.4870    1.3147    0.0000 C   0  0  0  0  0  0  0  0  0  5  0  0
    2.7431    0.0122    0.0000 C   0  0  0  0  0  0  0  0  0  6  0  0
    1.2431    0.0051    0.0000 C   0  0  0  0  0  0  0  0  0  7  0  0
    0.4870    1.3006    0.0000 C   0  0  0  0  0  0  0  0  0  8  0  0
    1.2309    2.6032    0.0000 C   0  0  0  0  0  0  0  0  0  9  0  0
    0.4748    3.8987    0.0000 O   0  0  0  0  0  0  0  0  0 10  0  0
    2.7309    2.6102    0.0000 O   0  0  0  0  0  0  0  0  0 11  0  0
    2.9041   -2.3253    0.0000 H   0  0  0  0  0  0  0  0  0  0  0  0
    7.2117   -0.2787    0.0000 O   0  0  0  0  0  0  0  0  0  0  0  0
    7.3755   -1.7697    0.0000 C   0  0  1  0  0  0  0  0  0  0  0  0
    6.0081   -2.3862    0.0000 C   0  0  0  0  0  0  0  0  0  0  0  0
    8.6781   -2.5136    0.0000 C   0  0  0  0  0  0  0  0  0  0  0  0
    9.9806   -3.2575    0.0000 C   0  0  0  0  0  0  0  0  0  0  0  0
    7.9342   -3.8161    0.0000 C   0  0  0  0  0  0  0  0  0  0  0  0
    9.4220   -1.2110    0.0000 O   0  0  0  0  0  0  0  0  0  0  0  0
    5.7308    2.6244    0.0000 O   0  0  0  0  0  0  0  0  0  0  0  0
    7.2308    2.6314    0.0000 C   0  0  1  0  0  0  0  0  0  0  0  0
    7.9747    3.9340    0.0000 C   0  0  1  0  0  0  0  0  0  0  0  0
    9.4747    3.9410    0.0000 C   0  0  2  0  0  0  0  0  0  0  0  0
   10.2308    2.6455    0.0000 C   0  0  1  0  0  0  0  0  0  0  0  0
    9.4869    1.3430    0.0000 C   0  0  2  0  0  0  0  0  0  0  0  0
    7.9869    1.3359    0.0000 O   0  0  0  0  0  0  0  0  0  0  0  0
   10.2430    0.0475    0.0000 C   0  0  0  0  0  0  0  0  0  0  0  0
   11.7430    0.0545    0.0000 O   0  0  0  0  0  0  0  0  0  0  0  0
   11.7308    2.6526    0.0000 O   0  0  0  0  0  0  0  0  0  0  0  0
   10.2186    5.2436    0.0000 O   0  0  0  0  0  0  0  0  0  0  0  0
    7.2186    5.2295    0.0000 O   0  0  0  0  0  0  0  0  0  0  0  0
   -0.7130    1.2950    0.0000 H   0  0  0  0  0  0  0  0  0  0  0  0
    0.4992   -1.2974    0.0000 C   0  0  0  0  0  0  0  0  0  0  0  0
   -1.0008   -1.3045    0.0000 C   0  0  0  0  0  0  0  0  0  0  0  0
   -1.7447   -2.6070    0.0000 C   0  0  0  0  0  0  0  0  0  0  0  0
   -3.2446   -2.6141    0.0000 O   0  0  0  0  0  0  0  0  0  0  0  0
   -0.9886   -3.9025    0.0000 O   0  0  0  0  0  0  0  0  0  0  0  0
  1  2  2  0  0  0  0
  1  6  1  0  0  0  0
  2  3  1  0  0  0  0
  3  4  2  0  0  0  0
  4  5  1  0  0  0  0
  5  6  2  0  0  0  0
  5 11  1  0  0  0  0
  6  7  1  0  0  0  0
  7  8  2  0  0  0  0
  8  9  1  0  0  0  0
  9 10  2  0  0  0  0
  9 11  1  0  0  0  0
  1 12  1  0  0  0  0
 13 14  1  0  0  0  0
 14 15  1  0  0  0  0
 14 16  1  6  0  0  0
 16 17  1  0  0  0  0
 16 18  1  0  0  0  0
 16 19  1  0  0  0  0
  2 15  1  0  0  0  0
  3 13  1  0  0  0  0
 21 20  1  6  0  0  0
 21 22  1  0  0  0  0
 21 26  1  0  0  0  0
 22 23  1  0  0  0  0
 22 31  1  1  0  0  0
 23 24  1  0  0  0  0
 23 30  1  6  0  0  0
 24 25  1  0  0  0  0
 24 29  1  1  0  0  0
 25 26  1  0  0  0  0
 25 27  1  6  0  0  0
 27 28  1  0  0  0  0
  4 20  1  0  0  0  0
  8 32  1  0  0  0  0
 33 34  1  0  0  0  0
 34 35  1  0  0  0  0
 35 36  2  0  0  0  0
 35 37  1  0  0  0  0
  7 33  1  0  0  0  0
M  END
> <score_KierA3>
0.512179

$$$$
suggested molecule #55
 MOE2019            2D

 37 40  0  0  1  0  0  0  0  0999 V2000
    3.4992   -1.2833    0.0000 C   0  0  0  0  0  0  0  0  0  1  0  0
    4.9992   -1.2762    0.0000 C   0  0  0  0  0  0  0  0  0  2  0  0
    5.7430    0.0263    0.0000 C   0  0  0  0  0  0  0  0  0  3  0  0
    4.9869    1.3218    0.0000 C   0  0  0  0  0  0  0  0  0  4  0  0
    3.4870    1.3147    0.0000 C   0  0  0  0  0  0  0  0  0  5  0  0
    2.7431    0.0122    0.0000 C   0  0  0  0  0  0  0  0  0  6  0  0
    1.2431    0.0051    0.0000 C   0  0  0  0  0  0  0  0  0  7  0  0
    0.4870    1.3006    0.0000 C   0  0  0  0  0  0  0  0  0  8  0  0
    1.2309    2.6032    0.0000 C   0  0  0  0  0  0  0  0  0  9  0  0
    0.4748    3.8987    0.0000 O   0  0  0  0  0  0  0  0  0 10  0  0
    2.7309    2.6102    0.0000 O   0  0  0  0  0  0  0  0  0 11  0  0
    2.9041   -2.3253    0.0000 H   0  0  0  0  0  0  0  0  0  0  0  0
    7.2117   -0.2787    0.0000 O   0  0  0  0  0  0  0  0  0  0  0  0
    7.3755   -1.7697    0.0000 C   0  0  1  0  0  0  0  0  0  0  0  0
    6.0081   -2.3862    0.0000 C   0  0  0  0  0  0  0  0  0  0  0  0
    8.6781   -2.5136    0.0000 C   0  0  0  0  0  0  0  0  0  0  0  0
    9.9806   -3.2575    0.0000 C   0  0  0  0  0  0  0  0  0  0  0  0
    7.9342   -3.8161    0.0000 C   0  0  0  0  0  0  0  0  0  0  0  0
    9.4220   -1.2110    0.0000 O   0  0  0  0  0  0  0  0  0  0  0  0
    5.7308    2.6244    0.0000 O   0  0  0  0  0  0  0  0  0  0  0  0
    7.2308    2.6314    0.0000 C   0  0  1  0  0  0  0  0  0  0  0  0
    7.9747    3.9340    0.0000 C   0  0  1  0  0  0  0  0  0  0  0  0
    9.4747    3.9410    0.0000 C   0  0  2  0  0  0  0  0  0  0  0  0
   10.2308    2.6455    0.0000 C   0  0  1  0  0  0  0  0  0  0  0  0
    9.4869    1.3430    0.0000 C   0  0  2  0  0  0  0  0  0  0  0  0
    7.9869    1.3359    0.0000 O   0  0  0  0  0  0  0  0  0  0  0  0
   10.2430    0.0475    0.0000 C   0  0  0  0  0  0  0  0  0  0  0  0
   11.7430    0.0545    0.0000 O   0  0  0  0  0  0  0  0  0  0  0  0
   11.7308    2.6526    0.0000 O   0  0  0  0  0  0  0  0  0  0  0  0
   10.2186    5.2436    0.0000 O   0  0  0  0  0  0  0  0  0  0  0  0
    7.2186    5.2295    0.0000 O   0  0  0  0  0  0  0  0  0  0  0  0
   -0.7130    1.2950    0.0000 H   0  0  0  0  0  0  0  0  0  0  0  0
    0.4992   -1.2974    0.0000 C   0  0  0  0  0  0  0  0  0  0  0  0
   -1.0008   -1.3045    0.0000 C   0  0  0  0  0  0  0  0  0  0  0  0
   -1.7447   -2.6070    0.0000 C   0  0  0  0  0  0  0  0  0  0  0  0
   -3.2446   -2.6141    0.0000 O   0  0  0  0  0  0  0  0  0  0  0  0
   -0.9886   -3.9025    0.0000 O   0  0  0  0  0  0  0  0  0  0  0  0
  1  2  2  0  0  0  0
  1  6  1  0  0  0  0
  2  3  1  0  0  0  0
  3  4  2  0  0  0  0
  4  5  1  0  0  0  0
  5  6  2  0  0  0  0
  5 11  1  0  0  0  0
  6  7  1  0  0  0  0
  7  8  2  0  0  0  0
  8  9  1  0  0  0  0
  9 10  2  0  0  0  0
  9 11  1  0  0  0  0
  1 12  1  0  0  0  0
 13 14  1  0  0  0  0
 14 15  1  0  0  0  0
 14 16  1  6  0  0  0
 16 17  1  0  0  0  0
 16 18  1  0  0  0  0
 16 19  1  0  0  0  0
  2 15  1  0  0  0  0
  3 13  1  0  0  0  0
 21 20  1  6  0  0  0
 21 22  1  0  0  0  0
 21 26  1  0  0  0  0
 22 23  1  0  0  0  0
 22 31  1  1  0  0  0
 23 24  1  0  0  0  0
 23 30  1  6  0  0  0
 24 25  1  0  0  0  0
 24 29  1  1  0  0  0
 25 26  1  0  0  0  0
 25 27  1  6  0  0  0
 27 28  1  0  0  0  0
  4 20  1  0  0  0  0
  8 32  1  0  0  0  0
 33 34  1  0  0  0  0
 34 35  1  0  0  0  0
 35 36  2  0  0  0  0
 35 37  1  0  0  0  0
  7 33  1  0  0  0  0
M  END
> <score_KierFlex>
0.516381

$$$$
suggested molecule #56
 MOE2019            2D

 42 46  0  0  1  0  0  0  0  0999 V2000
    3.4992   -1.2833    0.0000 C   0  0  0  0  0  0  0  0  0  1  0  0
    4.9992   -1.2762    0.0000 C   0  0  0  0  0  0  0  0  0  2  0  0
    5.7430    0.0263    0.0000 C   0  0  0  0  0  0  0  0  0  3  0  0
    4.9869    1.3218    0.0000 C   0  0  0  0  0  0  0  0  0  4  0  0
    3.4870    1.3147    0.0000 C   0  0  0  0  0  0  0  0  0  5  0  0
    2.7431    0.0122    0.0000 C   0  0  0  0  0  0  0  0  0  6  0  0
    1.2431    0.0051    0.0000 C   0  0  0  0  0  0  0  0  0  7  0  0
    0.4870    1.3006    0.0000 C   0  0  0  0  0  0  0  0  0  8  0  0
    1.2309    2.6032    0.0000 C   0  0  0  0  0  0  0  0  0  9  0  0
    0.4748    3.8987    0.0000 O   0  0  0  0  0  0  0  0  0 10  0  0
    2.7309    2.6102    0.0000 O   0  0  0  0  0  0  0  0  0 11  0  0
    2.9041   -2.3253    0.0000 H   0  0  0  0  0  0  0  0  0  0  0  0
    7.2117   -0.2787    0.0000 O   0  0  0  0  0  0  0  0  0  0  0  0
    7.3755   -1.7697    0.0000 C   0  0  1  0  0  0  0  0  0  0  0  0
    6.0081   -2.3862    0.0000 C   0  0  0  0  0  0  0  0  0  0  0  0
    8.6781   -2.5136    0.0000 C   0  0  0  0  0  0  0  0  0  0  0  0
    7.9342   -3.8161    0.0000 C   0  0  0  0  0  0  0  0  0  0  0  0
    9.4220   -1.2110    0.0000 C   0  0  0  0  0  0  0  0  0  0  0  0
    9.9806   -3.2575    0.0000 O   0  0  0  0  0  0  0  0  0  0  0  0
    5.7308    2.6244    0.0000 O   0  0  0  0  0  0  0  0  0  0  0  0
    7.2308    2.6314    0.0000 C   0  0  1  0  0  0  0  0  0  0  0  0
    7.9747    3.9340    0.0000 C   0  0  1  0  0  0  0  0  0  0  0  0
    9.4747    3.9410    0.0000 C   0  0  2  0  0  0  0  0  0  0  0  0
   10.2308    2.6455    0.0000 C   0  0  1  0  0  0  0  0  0  0  0  0
    9.4869    1.3430    0.0000 C   0  0  2  0  0  0  0  0  0  0  0  0
    7.9869    1.3359    0.0000 O   0  0  0  0  0  0  0  0  0  0  0  0
   10.2430    0.0475    0.0000 C   0  0  0  0  0  0  0  0  0  0  0  0
   11.7430    0.0545    0.0000 O   0  0  0  0  0  0  0  0  0  0  0  0
   11.7308    2.6526    0.0000 O   0  0  0  0  0  0  0  0  0  0  0  0
   10.2186    5.2436    0.0000 O   0  0  0  0  0  0  0  0  0  0  0  0
    7.2186    5.2295    0.0000 O   0  0  0  0  0  0  0  0  0  0  0  0
   -0.7130    1.2950    0.0000 H   0  0  0  0  0  0  0  0  0  0  0  0
    0.4992   -1.2974    0.0000 C   0  0  0  0  0  0  0  0  0  0  0  0
   -1.0008   -1.3045    0.0000 C   0  0  0  0  0  0  0  0  0  0  0  0
   -1.7447   -2.6070    0.0000 C   0  0  0  0  0  0  0  0  0  0  0  0
   -0.9886   -3.9025    0.0000 C   0  0  0  0  0  0  0  0  0  0  0  0
    0.5114   -3.8955    0.0000 C   0  0  0  0  0  0  0  0  0  0  0  0
    1.2553   -2.5929    0.0000 C   0  0  0  0  0  0  0  0  0  0  0  0
    1.2675   -5.1910    0.0000 O   0  0  0  0  0  0  0  0  0  0  0  0
   -1.7324   -5.2051    0.0000 O   0  0  0  0  0  0  0  0  0  0  0  0
   -3.2324   -5.2121    0.0000 C   0  0  0  0  0  0  0  0  0  0  0  0
   -3.2446   -2.6141    0.0000 O   0  0  0  0  0  0  0  0  0  0  0  0
  1  2  2  0  0  0  0
  1  6  1  0  0  0  0
  2  3  1  0  0  0  0
  3  4  2  0  0  0  0
  4  5  1  0  0  0  0
  5  6  2  0  0  0  0
  5 11  1  0  0  0  0
  6  7  1  0  0  0  0
  7  8  2  0  0  0  0
  8  9  1  0  0  0  0
  9 10  2  0  0  0  0
  9 11  1  0  0  0  0
  1 12  1  0  0  0  0
 13 14  1  0  0  0  0
 14 15  1  0  0  0  0
 14 16  1  6  0  0  0
 16 17  1  0  0  0  0
 16 18  1  0  0  0  0
 16 19  1  0  0  0  0
  2 15  1  0  0  0  0
  3 13  1  0  0  0  0
 21 20  1  6  0  0  0
 21 22  1  0  0  0  0
 21 26  1  0  0  0  0
 22 23  1  0  0  0  0
 22 31  1  1  0  0  0
 23 24  1  0  0  0  0
 23 30  1  6  0  0  0
 24 25  1  0  0  0  0
 24 29  1  1  0  0  0
 25 26  1  0  0  0  0
 25 27  1  6  0  0  0
 27 28  1  0  0  0  0
  4 20  1  0  0  0  0
  8 32  1  0  0  0  0
 33 34  2  0  0  0  0
 33 38  1  0  0  0  0
 34 35  1  0  0  0  0
 35 36  2  0  0  0  0
 35 42  1  0  0  0  0
 36 37  1  0  0  0  0
 36 40  1  0  0  0  0
 37 38  2  0  0  0  0
 37 39  1  0  0  0  0
 40 41  1  0  0  0  0
  7 33  1  0  0  0  0
M  END
> <score_Kier3>
0.511538

$$$$
suggested molecule #57
 MOE2019            2D

 42 46  0  0  1  0  0  0  0  0999 V2000
    3.4992   -1.2833    0.0000 C   0  0  0  0  0  0  0  0  0  1  0  0
    4.9992   -1.2762    0.0000 C   0  0  0  0  0  0  0  0  0  2  0  0
    5.7430    0.0263    0.0000 C   0  0  0  0  0  0  0  0  0  3  0  0
    4.9869    1.3218    0.0000 C   0  0  0  0  0  0  0  0  0  4  0  0
    3.4870    1.3147    0.0000 C   0  0  0  0  0  0  0  0  0  5  0  0
    2.7431    0.0122    0.0000 C   0  0  0  0  0  0  0  0  0  6  0  0
    1.2431    0.0051    0.0000 C   0  0  0  0  0  0  0  0  0  7  0  0
    0.4870    1.3006    0.0000 C   0  0  0  0  0  0  0  0  0  8  0  0
    1.2309    2.6032    0.0000 C   0  0  0  0  0  0  0  0  0  9  0  0
    0.4748    3.8987    0.0000 O   0  0  0  0  0  0  0  0  0 10  0  0
    2.7309    2.6102    0.0000 O   0  0  0  0  0  0  0  0  0 11  0  0
    2.9041   -2.3253    0.0000 H   0  0  0  0  0  0  0  0  0  0  0  0
    7.2117   -0.2787    0.0000 O   0  0  0  0  0  0  0  0  0  0  0  0
    7.3755   -1.7697    0.0000 C   0  0  1  0  0  0  0  0  0  0  0  0
    6.0081   -2.3862    0.0000 C   0  0  0  0  0  0  0  0  0  0  0  0
    8.6781   -2.5136    0.0000 C   0  0  0  0  0  0  0  0  0  0  0  0
    7.9342   -3.8161    0.0000 C   0  0  0  0  0  0  0  0  0  0  0  0
    9.4220   -1.2110    0.0000 C   0  0  0  0  0  0  0  0  0  0  0  0
    9.9806   -3.2575    0.0000 O   0  0  0  0  0  0  0  0  0  0  0  0
    5.7308    2.6244    0.0000 O   0  0  0  0  0  0  0  0  0  0  0  0
    7.2308    2.6314    0.0000 C   0  0  1  0  0  0  0  0  0  0  0  0
    7.9747    3.9340    0.0000 C   0  0  1  0  0  0  0  0  0  0  0  0
    9.4747    3.9410    0.0000 C   0  0  2  0  0  0  0  0  0  0  0  0
   10.2308    2.6455    0.0000 C   0  0  1  0  0  0  0  0  0  0  0  0
    9.4869    1.3430    0.0000 C   0  0  2  0  0  0  0  0  0  0  0  0
    7.9869    1.3359    0.0000 O   0  0  0  0  0  0  0  0  0  0  0  0
   10.2430    0.0475    0.0000 C   0  0  0  0  0  0  0  0  0  0  0  0
   11.7430    0.0545    0.0000 O   0  0  0  0  0  0  0  0  0  0  0  0
   11.7308    2.6526    0.0000 O   0  0  0  0  0  0  0  0  0  0  0  0
   10.2186    5.2436    0.0000 O   0  0  0  0  0  0  0  0  0  0  0  0
    7.2186    5.2295    0.0000 O   0  0  0  0  0  0  0  0  0  0  0  0
   -0.7130    1.2950    0.0000 H   0  0  0  0  0  0  0  0  0  0  0  0
    0.4992   -1.2974    0.0000 C   0  0  0  0  0  0  0  0  0  0  0  0
   -1.0008   -1.3045    0.0000 C   0  0  0  0  0  0  0  0  0  0  0  0
   -1.7447   -2.6070    0.0000 C   0  0  0  0  0  0  0  0  0  0  0  0
   -0.9886   -3.9025    0.0000 C   0  0  0  0  0  0  0  0  0  0  0  0
    0.5114   -3.8955    0.0000 C   0  0  0  0  0  0  0  0  0  0  0  0
    1.2553   -2.5929    0.0000 C   0  0  0  0  0  0  0  0  0  0  0  0
    1.2675   -5.1910    0.0000 O   0  0  0  0  0  0  0  0  0  0  0  0
   -1.7324   -5.2051    0.0000 O   0  0  0  0  0  0  0  0  0  0  0  0
   -3.2324   -5.2121    0.0000 C   0  0  0  0  0  0  0  0  0  0  0  0
   -3.2446   -2.6141    0.0000 O   0  0  0  0  0  0  0  0  0  0  0  0
  1  2  2  0  0  0  0
  1  6  1  0  0  0  0
  2  3  1  0  0  0  0
  3  4  2  0  0  0  0
  4  5  1  0  0  0  0
  5  6  2  0  0  0  0
  5 11  1  0  0  0  0
  6  7  1  0  0  0  0
  7  8  2  0  0  0  0
  8  9  1  0  0  0  0
  9 10  2  0  0  0  0
  9 11  1  0  0  0  0
  1 12  1  0  0  0  0
 13 14  1  0  0  0  0
 14 15  1  0  0  0  0
 14 16  1  6  0  0  0
 16 17  1  0  0  0  0
 16 18  1  0  0  0  0
 16 19  1  0  0  0  0
  2 15  1  0  0  0  0
  3 13  1  0  0  0  0
 21 20  1  6  0  0  0
 21 22  1  0  0  0  0
 21 26  1  0  0  0  0
 22 23  1  0  0  0  0
 22 31  1  1  0  0  0
 23 24  1  0  0  0  0
 23 30  1  6  0  0  0
 24 25  1  0  0  0  0
 24 29  1  1  0  0  0
 25 26  1  0  0  0  0
 25 27  1  6  0  0  0
 27 28  1  0  0  0  0
  4 20  1  0  0  0  0
  8 32  1  0  0  0  0
 33 34  2  0  0  0  0
 33 38  1  0  0  0  0
 34 35  1  0  0  0  0
 35 36  2  0  0  0  0
 35 42  1  0  0  0  0
 36 37  1  0  0  0  0
 36 40  1  0  0  0  0
 37 38  2  0  0  0  0
 37 39  1  0  0  0  0
 40 41  1  0  0  0  0
  7 33  1  0  0  0  0
M  END
> <score_KierA3>
0.512145

$$$$
suggested molecule #58
 MOE2019            2D

 42 46  0  0  1  0  0  0  0  0999 V2000
    3.4992   -1.2833    0.0000 C   0  0  0  0  0  0  0  0  0  1  0  0
    4.9992   -1.2762    0.0000 C   0  0  0  0  0  0  0  0  0  2  0  0
    5.7430    0.0263    0.0000 C   0  0  0  0  0  0  0  0  0  3  0  0
    4.9869    1.3218    0.0000 C   0  0  0  0  0  0  0  0  0  4  0  0
    3.4870    1.3147    0.0000 C   0  0  0  0  0  0  0  0  0  5  0  0
    2.7431    0.0122    0.0000 C   0  0  0  0  0  0  0  0  0  6  0  0
    1.2431    0.0051    0.0000 C   0  0  0  0  0  0  0  0  0  7  0  0
    0.4870    1.3006    0.0000 C   0  0  0  0  0  0  0  0  0  8  0  0
    1.2309    2.6032    0.0000 C   0  0  0  0  0  0  0  0  0  9  0  0
    0.4748    3.8987    0.0000 O   0  0  0  0  0  0  0  0  0 10  0  0
    2.7309    2.6102    0.0000 O   0  0  0  0  0  0  0  0  0 11  0  0
    2.9041   -2.3253    0.0000 H   0  0  0  0  0  0  0  0  0  0  0  0
    7.2117   -0.2787    0.0000 O   0  0  0  0  0  0  0  0  0  0  0  0
    7.3755   -1.7697    0.0000 C   0  0  1  0  0  0  0  0  0  0  0  0
    6.0081   -2.3862    0.0000 C   0  0  0  0  0  0  0  0  0  0  0  0
    8.6781   -2.5136    0.0000 C   0  0  0  0  0  0  0  0  0  0  0  0
    7.9342   -3.8161    0.0000 C   0  0  0  0  0  0  0  0  0  0  0  0
    9.4220   -1.2110    0.0000 C   0  0  0  0  0  0  0  0  0  0  0  0
    9.9806   -3.2575    0.0000 O   0  0  0  0  0  0  0  0  0  0  0  0
    5.7308    2.6244    0.0000 O   0  0  0  0  0  0  0  0  0  0  0  0
    7.2308    2.6314    0.0000 C   0  0  1  0  0  0  0  0  0  0  0  0
    7.9747    3.9340    0.0000 C   0  0  1  0  0  0  0  0  0  0  0  0
    9.4747    3.9410    0.0000 C   0  0  2  0  0  0  0  0  0  0  0  0
   10.2308    2.6455    0.0000 C   0  0  1  0  0  0  0  0  0  0  0  0
    9.4869    1.3430    0.0000 C   0  0  2  0  0  0  0  0  0  0  0  0
    7.9869    1.3359    0.0000 O   0  0  0  0  0  0  0  0  0  0  0  0
   10.2430    0.0475    0.0000 C   0  0  0  0  0  0  0  0  0  0  0  0
   11.7430    0.0545    0.0000 O   0  0  0  0  0  0  0  0  0  0  0  0
   11.7308    2.6526    0.0000 O   0  0  0  0  0  0  0  0  0  0  0  0
   10.2186    5.2436    0.0000 O   0  0  0  0  0  0  0  0  0  0  0  0
    7.2186    5.2295    0.0000 O   0  0  0  0  0  0  0  0  0  0  0  0
   -0.7130    1.2950    0.0000 H   0  0  0  0  0  0  0  0  0  0  0  0
    0.4992   -1.2974    0.0000 C   0  0  0  0  0  0  0  0  0  0  0  0
   -1.0008   -1.3045    0.0000 C   0  0  0  0  0  0  0  0  0  0  0  0
   -1.7447   -2.6070    0.0000 C   0  0  0  0  0  0  0  0  0  0  0  0
   -0.9886   -3.9025    0.0000 C   0  0  0  0  0  0  0  0  0  0  0  0
    0.5114   -3.8955    0.0000 C   0  0  0  0  0  0  0  0  0  0  0  0
    1.2553   -2.5929    0.0000 C   0  0  0  0  0  0  0  0  0  0  0  0
    1.2675   -5.1910    0.0000 O   0  0  0  0  0  0  0  0  0  0  0  0
   -1.7324   -5.2051    0.0000 O   0  0  0  0  0  0  0  0  0  0  0  0
   -3.2324   -5.2121    0.0000 C   0  0  0  0  0  0  0  0  0  0  0  0
   -3.2446   -2.6141    0.0000 O   0  0  0  0  0  0  0  0  0  0  0  0
  1  2  2  0  0  0  0
  1  6  1  0  0  0  0
  2  3  1  0  0  0  0
  3  4  2  0  0  0  0
  4  5  1  0  0  0  0
  5  6  2  0  0  0  0
  5 11  1  0  0  0  0
  6  7  1  0  0  0  0
  7  8  2  0  0  0  0
  8  9  1  0  0  0  0
  9 10  2  0  0  0  0
  9 11  1  0  0  0  0
  1 12  1  0  0  0  0
 13 14  1  0  0  0  0
 14 15  1  0  0  0  0
 14 16  1  6  0  0  0
 16 17  1  0  0  0  0
 16 18  1  0  0  0  0
 16 19  1  0  0  0  0
  2 15  1  0  0  0  0
  3 13  1  0  0  0  0
 21 20  1  6  0  0  0
 21 22  1  0  0  0  0
 21 26  1  0  0  0  0
 22 23  1  0  0  0  0
 22 31  1  1  0  0  0
 23 24  1  0  0  0  0
 23 30  1  6  0  0  0
 24 25  1  0  0  0  0
 24 29  1  1  0  0  0
 25 26  1  0  0  0  0
 25 27  1  6  0  0  0
 27 28  1  0  0  0  0
  4 20  1  0  0  0  0
  8 32  1  0  0  0  0
 33 34  2  0  0  0  0
 33 38  1  0  0  0  0
 34 35  1  0  0  0  0
 35 36  2  0  0  0  0
 35 42  1  0  0  0  0
 36 37  1  0  0  0  0
 36 40  1  0  0  0  0
 37 38  2  0  0  0  0
 37 39  1  0  0  0  0
 40 41  1  0  0  0  0
  7 33  1  0  0  0  0
M  END
> <score_KierFlex>
0.516331

$$$$
suggested molecule #59
 MOE2019            2D

 41 45  0  0  1  0  0  0  0  0999 V2000
    3.4992   -1.2833    0.0000 C   0  0  0  0  0  0  0  0  0  1  0  0
    4.9992   -1.2762    0.0000 C   0  0  0  0  0  0  0  0  0  2  0  0
    5.7430    0.0263    0.0000 C   0  0  0  0  0  0  0  0  0  3  0  0
    4.9869    1.3218    0.0000 C   0  0  0  0  0  0  0  0  0  4  0  0
    3.4870    1.3147    0.0000 C   0  0  0  0  0  0  0  0  0  5  0  0
    2.7431    0.0122    0.0000 C   0  0  0  0  0  0  0  0  0  6  0  0
    1.2431    0.0051    0.0000 C   0  0  0  0  0  0  0  0  0  7  0  0
    0.4870    1.3006    0.0000 C   0  0  0  0  0  0  0  0  0  8  0  0
    1.2309    2.6032    0.0000 C   0  0  0  0  0  0  0  0  0  9  0  0
    0.4748    3.8987    0.0000 O   0  0  0  0  0  0  0  0  0 10  0  0
    2.7309    2.6102    0.0000 O   0  0  0  0  0  0  0  0  0 11  0  0
    2.9041   -2.3253    0.0000 H   0  0  0  0  0  0  0  0  0  0  0  0
    7.2117   -0.2787    0.0000 O   0  0  0  0  0  0  0  0  0  0  0  0
    7.3755   -1.7697    0.0000 C   0  0  1  0  0  0  0  0  0  0  0  0
    6.0081   -2.3862    0.0000 C   0  0  0  0  0  0  0  0  0  0  0  0
    8.6781   -2.5136    0.0000 C   0  0  0  0  0  0  0  0  0  0  0  0
    9.4220   -1.2110    0.0000 C   0  0  0  0  0  0  0  0  0  0  0  0
    9.9806   -3.2575    0.0000 C   0  0  0  0  0  0  0  0  0  0  0  0
    7.9342   -3.8161    0.0000 O   0  0  0  0  0  0  0  0  0  0  0  0
    5.7308    2.6244    0.0000 O   0  0  0  0  0  0  0  0  0  0  0  0
    7.2308    2.6314    0.0000 C   0  0  1  0  0  0  0  0  0  0  0  0
    7.9747    3.9340    0.0000 C   0  0  1  0  0  0  0  0  0  0  0  0
    9.4747    3.9410    0.0000 C   0  0  2  0  0  0  0  0  0  0  0  0
   10.2308    2.6455    0.0000 C   0  0  1  0  0  0  0  0  0  0  0  0
    9.4869    1.3430    0.0000 C   0  0  2  0  0  0  0  0  0  0  0  0
    7.9869    1.3359    0.0000 O   0  0  0  0  0  0  0  0  0  0  0  0
   10.2430    0.0475    0.0000 C   0  0  0  0  0  0  0  0  0  0  0  0
   11.7430    0.0545    0.0000 O   0  0  0  0  0  0  0  0  0  0  0  0
   11.7308    2.6526    0.0000 O   0  0  0  0  0  0  0  0  0  0  0  0
   10.2186    5.2436    0.0000 O   0  0  0  0  0  0  0  0  0  0  0  0
    7.2186    5.2295    0.0000 O   0  0  0  0  0  0  0  0  0  0  0  0
   -0.7130    1.2950    0.0000 H   0  0  0  0  0  0  0  0  0  0  0  0
   -0.9763   -6.5006    0.0000 C   0  0  0  0  0  0  0  0  0  0  0  0
   -1.7324   -5.2051    0.0000 O   0  0  0  0  0  0  0  0  0  0  0  0
   -0.9886   -3.9025    0.0000 C   0  0  0  0  0  0  0  0  0  0  0  0
   -1.7447   -2.6070    0.0000 C   0  0  0  0  0  0  0  0  0  0  0  0
   -1.0008   -1.3045    0.0000 C   0  0  0  0  0  0  0  0  0  0  0  0
    0.4992   -1.2974    0.0000 C   0  0  0  0  0  0  0  0  0  0  0  0
    1.2553   -2.5929    0.0000 C   0  0  0  0  0  0  0  0  0  0  0  0
    0.5114   -3.8955    0.0000 C   0  0  0  0  0  0  0  0  0  0  0  0
   -3.2446   -2.6141    0.0000 O   0  0  0  0  0  0  0  0  0  0  0  0
  1  2  2  0  0  0  0
  1  6  1  0  0  0  0
  2  3  1  0  0  0  0
  3  4  2  0  0  0  0
  4  5  1  0  0  0  0
  5  6  2  0  0  0  0
  5 11  1  0  0  0  0
  6  7  1  0  0  0  0
  7  8  2  0  0  0  0
  8  9  1  0  0  0  0
  9 10  2  0  0  0  0
  9 11  1  0  0  0  0
  1 12  1  0  0  0  0
 13 14  1  0  0  0  0
 14 15  1  0  0  0  0
 14 16  1  6  0  0  0
 16 17  1  0  0  0  0
 16 18  1  0  0  0  0
 16 19  1  0  0  0  0
  2 15  1  0  0  0  0
  3 13  1  0  0  0  0
 21 20  1  6  0  0  0
 21 22  1  0  0  0  0
 21 26  1  0  0  0  0
 22 23  1  0  0  0  0
 22 31  1  1  0  0  0
 23 24  1  0  0  0  0
 23 30  1  6  0  0  0
 24 25  1  0  0  0  0
 24 29  1  1  0  0  0
 25 26  1  0  0  0  0
 25 27  1  6  0  0  0
 27 28  1  0  0  0  0
  4 20  1  0  0  0  0
  8 32  1  0  0  0  0
 33 34  1  0  0  0  0
 34 35  1  0  0  0  0
 35 36  2  0  0  0  0
 35 40  1  0  0  0  0
 36 37  1  0  0  0  0
 36 41  1  0  0  0  0
 37 38  2  0  0  0  0
 38 39  1  0  0  0  0
 39 40  2  0  0  0  0
  7 38  1  0  0  0  0
M  END
> <score_Kier3>
0.511519

$$$$
suggested molecule #60
 MOE2019            2D

 41 45  0  0  1  0  0  0  0  0999 V2000
    3.4992   -1.2833    0.0000 C   0  0  0  0  0  0  0  0  0  1  0  0
    4.9992   -1.2762    0.0000 C   0  0  0  0  0  0  0  0  0  2  0  0
    5.7430    0.0263    0.0000 C   0  0  0  0  0  0  0  0  0  3  0  0
    4.9869    1.3218    0.0000 C   0  0  0  0  0  0  0  0  0  4  0  0
    3.4870    1.3147    0.0000 C   0  0  0  0  0  0  0  0  0  5  0  0
    2.7431    0.0122    0.0000 C   0  0  0  0  0  0  0  0  0  6  0  0
    1.2431    0.0051    0.0000 C   0  0  0  0  0  0  0  0  0  7  0  0
    0.4870    1.3006    0.0000 C   0  0  0  0  0  0  0  0  0  8  0  0
    1.2309    2.6032    0.0000 C   0  0  0  0  0  0  0  0  0  9  0  0
    0.4748    3.8987    0.0000 O   0  0  0  0  0  0  0  0  0 10  0  0
    2.7309    2.6102    0.0000 O   0  0  0  0  0  0  0  0  0 11  0  0
    2.9041   -2.3253    0.0000 H   0  0  0  0  0  0  0  0  0  0  0  0
    7.2117   -0.2787    0.0000 O   0  0  0  0  0  0  0  0  0  0  0  0
    7.3755   -1.7697    0.0000 C   0  0  1  0  0  0  0  0  0  0  0  0
    6.0081   -2.3862    0.0000 C   0  0  0  0  0  0  0  0  0  0  0  0
    8.6781   -2.5136    0.0000 C   0  0  0  0  0  0  0  0  0  0  0  0
    9.4220   -1.2110    0.0000 C   0  0  0  0  0  0  0  0  0  0  0  0
    9.9806   -3.2575    0.0000 C   0  0  0  0  0  0  0  0  0  0  0  0
    7.9342   -3.8161    0.0000 O   0  0  0  0  0  0  0  0  0  0  0  0
    5.7308    2.6244    0.0000 O   0  0  0  0  0  0  0  0  0  0  0  0
    7.2308    2.6314    0.0000 C   0  0  1  0  0  0  0  0  0  0  0  0
    7.9747    3.9340    0.0000 C   0  0  1  0  0  0  0  0  0  0  0  0
    9.4747    3.9410    0.0000 C   0  0  2  0  0  0  0  0  0  0  0  0
   10.2308    2.6455    0.0000 C   0  0  1  0  0  0  0  0  0  0  0  0
    9.4869    1.3430    0.0000 C   0  0  2  0  0  0  0  0  0  0  0  0
    7.9869    1.3359    0.0000 O   0  0  0  0  0  0  0  0  0  0  0  0
   10.2430    0.0475    0.0000 C   0  0  0  0  0  0  0  0  0  0  0  0
   11.7430    0.0545    0.0000 O   0  0  0  0  0  0  0  0  0  0  0  0
   11.7308    2.6526    0.0000 O   0  0  0  0  0  0  0  0  0  0  0  0
   10.2186    5.2436    0.0000 O   0  0  0  0  0  0  0  0  0  0  0  0
    7.2186    5.2295    0.0000 O   0  0  0  0  0  0  0  0  0  0  0  0
   -0.7130    1.2950    0.0000 H   0  0  0  0  0  0  0  0  0  0  0  0
   -0.9763   -6.5006    0.0000 C   0  0  0  0  0  0  0  0  0  0  0  0
   -1.7324   -5.2051    0.0000 O   0  0  0  0  0  0  0  0  0  0  0  0
   -0.9886   -3.9025    0.0000 C   0  0  0  0  0  0  0  0  0  0  0  0
   -1.7447   -2.6070    0.0000 C   0  0  0  0  0  0  0  0  0  0  0  0
   -1.0008   -1.3045    0.0000 C   0  0  0  0  0  0  0  0  0  0  0  0
    0.4992   -1.2974    0.0000 C   0  0  0  0  0  0  0  0  0  0  0  0
    1.2553   -2.5929    0.0000 C   0  0  0  0  0  0  0  0  0  0  0  0
    0.5114   -3.8955    0.0000 C   0  0  0  0  0  0  0  0  0  0  0  0
   -3.2446   -2.6141    0.0000 O   0  0  0  0  0  0  0  0  0  0  0  0
  1  2  2  0  0  0  0
  1  6  1  0  0  0  0
  2  3  1  0  0  0  0
  3  4  2  0  0  0  0
  4  5  1  0  0  0  0
  5  6  2  0  0  0  0
  5 11  1  0  0  0  0
  6  7  1  0  0  0  0
  7  8  2  0  0  0  0
  8  9  1  0  0  0  0
  9 10  2  0  0  0  0
  9 11  1  0  0  0  0
  1 12  1  0  0  0  0
 13 14  1  0  0  0  0
 14 15  1  0  0  0  0
 14 16  1  6  0  0  0
 16 17  1  0  0  0  0
 16 18  1  0  0  0  0
 16 19  1  0  0  0  0
  2 15  1  0  0  0  0
  3 13  1  0  0  0  0
 21 20  1  6  0  0  0
 21 22  1  0  0  0  0
 21 26  1  0  0  0  0
 22 23  1  0  0  0  0
 22 31  1  1  0  0  0
 23 24  1  0  0  0  0
 23 30  1  6  0  0  0
 24 25  1  0  0  0  0
 24 29  1  1  0  0  0
 25 26  1  0  0  0  0
 25 27  1  6  0  0  0
 27 28  1  0  0  0  0
  4 20  1  0  0  0  0
  8 32  1  0  0  0  0
 33 34  1  0  0  0  0
 34 35  1  0  0  0  0
 35 36  2  0  0  0  0
 35 40  1  0  0  0  0
 36 37  1  0  0  0  0
 36 41  1  0  0  0  0
 37 38  2  0  0  0  0
 38 39  1  0  0  0  0
 39 40  2  0  0  0  0
  7 38  1  0  0  0  0
M  END
> <score_KierA3>
0.512128

$$$$
suggested molecule #61
 MOE2019            2D

 41 45  0  0  1  0  0  0  0  0999 V2000
    3.4992   -1.2833    0.0000 C   0  0  0  0  0  0  0  0  0  1  0  0
    4.9992   -1.2762    0.0000 C   0  0  0  0  0  0  0  0  0  2  0  0
    5.7430    0.0263    0.0000 C   0  0  0  0  0  0  0  0  0  3  0  0
    4.9869    1.3218    0.0000 C   0  0  0  0  0  0  0  0  0  4  0  0
    3.4870    1.3147    0.0000 C   0  0  0  0  0  0  0  0  0  5  0  0
    2.7431    0.0122    0.0000 C   0  0  0  0  0  0  0  0  0  6  0  0
    1.2431    0.0051    0.0000 C   0  0  0  0  0  0  0  0  0  7  0  0
    0.4870    1.3006    0.0000 C   0  0  0  0  0  0  0  0  0  8  0  0
    1.2309    2.6032    0.0000 C   0  0  0  0  0  0  0  0  0  9  0  0
    0.4748    3.8987    0.0000 O   0  0  0  0  0  0  0  0  0 10  0  0
    2.7309    2.6102    0.0000 O   0  0  0  0  0  0  0  0  0 11  0  0
    2.9041   -2.3253    0.0000 H   0  0  0  0  0  0  0  0  0  0  0  0
    7.2117   -0.2787    0.0000 O   0  0  0  0  0  0  0  0  0  0  0  0
    7.3755   -1.7697    0.0000 C   0  0  1  0  0  0  0  0  0  0  0  0
    6.0081   -2.3862    0.0000 C   0  0  0  0  0  0  0  0  0  0  0  0
    8.6781   -2.5136    0.0000 C   0  0  0  0  0  0  0  0  0  0  0  0
    9.4220   -1.2110    0.0000 C   0  0  0  0  0  0  0  0  0  0  0  0
    9.9806   -3.2575    0.0000 C   0  0  0  0  0  0  0  0  0  0  0  0
    7.9342   -3.8161    0.0000 O   0  0  0  0  0  0  0  0  0  0  0  0
    5.7308    2.6244    0.0000 O   0  0  0  0  0  0  0  0  0  0  0  0
    7.2308    2.6314    0.0000 C   0  0  1  0  0  0  0  0  0  0  0  0
    7.9747    3.9340    0.0000 C   0  0  1  0  0  0  0  0  0  0  0  0
    9.4747    3.9410    0.0000 C   0  0  2  0  0  0  0  0  0  0  0  0
   10.2308    2.6455    0.0000 C   0  0  1  0  0  0  0  0  0  0  0  0
    9.4869    1.3430    0.0000 C   0  0  2  0  0  0  0  0  0  0  0  0
    7.9869    1.3359    0.0000 O   0  0  0  0  0  0  0  0  0  0  0  0
   10.2430    0.0475    0.0000 C   0  0  0  0  0  0  0  0  0  0  0  0
   11.7430    0.0545    0.0000 O   0  0  0  0  0  0  0  0  0  0  0  0
   11.7308    2.6526    0.0000 O   0  0  0  0  0  0  0  0  0  0  0  0
   10.2186    5.2436    0.0000 O   0  0  0  0  0  0  0  0  0  0  0  0
    7.2186    5.2295    0.0000 O   0  0  0  0  0  0  0  0  0  0  0  0
   -0.7130    1.2950    0.0000 H   0  0  0  0  0  0  0  0  0  0  0  0
   -0.9763   -6.5006    0.0000 C   0  0  0  0  0  0  0  0  0  0  0  0
   -1.7324   -5.2051    0.0000 O   0  0  0  0  0  0  0  0  0  0  0  0
   -0.9886   -3.9025    0.0000 C   0  0  0  0  0  0  0  0  0  0  0  0
   -1.7447   -2.6070    0.0000 C   0  0  0  0  0  0  0  0  0  0  0  0
   -1.0008   -1.3045    0.0000 C   0  0  0  0  0  0  0  0  0  0  0  0
    0.4992   -1.2974    0.0000 C   0  0  0  0  0  0  0  0  0  0  0  0
    1.2553   -2.5929    0.0000 C   0  0  0  0  0  0  0  0  0  0  0  0
    0.5114   -3.8955    0.0000 C   0  0  0  0  0  0  0  0  0  0  0  0
   -3.2446   -2.6141    0.0000 O   0  0  0  0  0  0  0  0  0  0  0  0
  1  2  2  0  0  0  0
  1  6  1  0  0  0  0
  2  3  1  0  0  0  0
  3  4  2  0  0  0  0
  4  5  1  0  0  0  0
  5  6  2  0  0  0  0
  5 11  1  0  0  0  0
  6  7  1  0  0  0  0
  7  8  2  0  0  0  0
  8  9  1  0  0  0  0
  9 10  2  0  0  0  0
  9 11  1  0  0  0  0
  1 12  1  0  0  0  0
 13 14  1  0  0  0  0
 14 15  1  0  0  0  0
 14 16  1  6  0  0  0
 16 17  1  0  0  0  0
 16 18  1  0  0  0  0
 16 19  1  0  0  0  0
  2 15  1  0  0  0  0
  3 13  1  0  0  0  0
 21 20  1  6  0  0  0
 21 22  1  0  0  0  0
 21 26  1  0  0  0  0
 22 23  1  0  0  0  0
 22 31  1  1  0  0  0
 23 24  1  0  0  0  0
 23 30  1  6  0  0  0
 24 25  1  0  0  0  0
 24 29  1  1  0  0  0
 25 26  1  0  0  0  0
 25 27  1  6  0  0  0
 27 28  1  0  0  0  0
  4 20  1  0  0  0  0
  8 32  1  0  0  0  0
 33 34  1  0  0  0  0
 34 35  1  0  0  0  0
 35 36  2  0  0  0  0
 35 40  1  0  0  0  0
 36 37  1  0  0  0  0
 36 41  1  0  0  0  0
 37 38  2  0  0  0  0
 38 39  1  0  0  0  0
 39 40  2  0  0  0  0
  7 38  1  0  0  0  0
M  END
> <score_KierFlex>
0.516319

$$$$
suggested molecule #62
 MOE2019            2D

 41 45  0  0  1  0  0  0  0  0999 V2000
    3.4992   -1.2833    0.0000 C   0  0  0  0  0  0  0  0  0  1  0  0
    4.9992   -1.2762    0.0000 C   0  0  0  0  0  0  0  0  0  2  0  0
    5.7430    0.0263    0.0000 C   0  0  0  0  0  0  0  0  0  3  0  0
    4.9869    1.3218    0.0000 C   0  0  0  0  0  0  0  0  0  4  0  0
    3.4870    1.3147    0.0000 C   0  0  0  0  0  0  0  0  0  5  0  0
    2.7431    0.0122    0.0000 C   0  0  0  0  0  0  0  0  0  6  0  0
    1.2431    0.0051    0.0000 C   0  0  0  0  0  0  0  0  0  7  0  0
    0.4870    1.3006    0.0000 C   0  0  0  0  0  0  0  0  0  8  0  0
    1.2309    2.6032    0.0000 C   0  0  0  0  0  0  0  0  0  9  0  0
    0.4748    3.8987    0.0000 O   0  0  0  0  0  0  0  0  0 10  0  0
    2.7309    2.6102    0.0000 O   0  0  0  0  0  0  0  0  0 11  0  0
    2.9041   -2.3253    0.0000 H   0  0  0  0  0  0  0  0  0  0  0  0
    7.2117   -0.2787    0.0000 O   0  0  0  0  0  0  0  0  0  0  0  0
    7.3755   -1.7697    0.0000 C   0  0  1  0  0  0  0  0  0  0  0  0
    6.0081   -2.3862    0.0000 C   0  0  0  0  0  0  0  0  0  0  0  0
    8.6781   -2.5136    0.0000 C   0  0  0  0  0  0  0  0  0  0  0  0
    7.9342   -3.8161    0.0000 C   0  0  0  0  0  0  0  0  0  0  0  0
    9.9806   -3.2575    0.0000 C   0  0  0  0  0  0  0  0  0  0  0  0
    9.4220   -1.2110    0.0000 O   0  0  0  0  0  0  0  0  0  0  0  0
    5.7308    2.6244    0.0000 O   0  0  0  0  0  0  0  0  0  0  0  0
    7.2308    2.6314    0.0000 C   0  0  1  0  0  0  0  0  0  0  0  0
    7.9747    3.9340    0.0000 C   0  0  1  0  0  0  0  0  0  0  0  0
    9.4747    3.9410    0.0000 C   0  0  2  0  0  0  0  0  0  0  0  0
   10.2308    2.6455    0.0000 C   0  0  1  0  0  0  0  0  0  0  0  0
    9.4869    1.3430    0.0000 C   0  0  2  0  0  0  0  0  0  0  0  0
    7.9869    1.3359    0.0000 O   0  0  0  0  0  0  0  0  0  0  0  0
   10.2430    0.0475    0.0000 C   0  0  0  0  0  0  0  0  0  0  0  0
   11.7430    0.0545    0.0000 O   0  0  0  0  0  0  0  0  0  0  0  0
   11.7308    2.6526    0.0000 O   0  0  0  0  0  0  0  0  0  0  0  0
   10.2186    5.2436    0.0000 O   0  0  0  0  0  0  0  0  0  0  0  0
    7.2186    5.2295    0.0000 O   0  0  0  0  0  0  0  0  0  0  0  0
   -0.7130    1.2950    0.0000 H   0  0  0  0  0  0  0  0  0  0  0  0
    1.2553   -2.5929    0.0000 C   0  0  0  0  0  0  0  0  0  0  0  0
    0.5114   -3.8955    0.0000 C   0  0  0  0  0  0  0  0  0  0  0  0
   -0.9886   -3.9025    0.0000 C   0  0  0  0  0  0  0  0  0  0  0  0
   -1.7447   -2.6070    0.0000 C   0  0  0  0  0  0  0  0  0  0  0  0
   -1.0008   -1.3045    0.0000 C   0  0  0  0  0  0  0  0  0  0  0  0
    0.4992   -1.2974    0.0000 C   0  0  0  0  0  0  0  0  0  0  0  0
   -1.7569   -0.0090    0.0000 O   0  0  0  0  0  0  0  0  0  0  0  0
   -3.2446   -2.6141    0.0000 O   0  0  0  0  0  0  0  0  0  0  0  0
   -1.7324   -5.2051    0.0000 O   0  0  0  0  0  0  0  0  0  0  0  0
  1  2  2  0  0  0  0
  1  6  1  0  0  0  0
  2  3  1  0  0  0  0
  3  4  2  0  0  0  0
  4  5  1  0  0  0  0
  5  6  2  0  0  0  0
  5 11  1  0  0  0  0
  6  7  1  0  0  0  0
  7  8  2  0  0  0  0
  8  9  1  0  0  0  0
  9 10  2  0  0  0  0
  9 11  1  0  0  0  0
  1 12  1  0  0  0  0
 13 14  1  0  0  0  0
 14 15  1  0  0  0  0
 14 16  1  6  0  0  0
 16 17  1  0  0  0  0
 16 18  1  0  0  0  0
 16 19  1  0  0  0  0
  2 15  1  0  0  0  0
  3 13  1  0  0  0  0
 21 20  1  6  0  0  0
 21 22  1  0  0  0  0
 21 26  1  0  0  0  0
 22 23  1  0  0  0  0
 22 31  1  1  0  0  0
 23 24  1  0  0  0  0
 23 30  1  6  0  0  0
 24 25  1  0  0  0  0
 24 29  1  1  0  0  0
 25 26  1  0  0  0  0
 25 27  1  6  0  0  0
 27 28  1  0  0  0  0
  4 20  1  0  0  0  0
  8 32  1  0  0  0  0
 33 34  2  0  0  0  0
 33 38  1  0  0  0  0
 34 35  1  0  0  0  0
 35 36  2  0  0  0  0
 35 41  1  0  0  0  0
 36 37  1  0  0  0  0
 36 40  1  0  0  0  0
 37 38  2  0  0  0  0
 37 39  1  0  0  0  0
  7 38  1  0  0  0  0
M  END
> <score_Kier1>
0.517715

$$$$
suggested molecule #63
 MOE2019            2D

 41 45  0  0  1  0  0  0  0  0999 V2000
    3.4992   -1.2833    0.0000 C   0  0  0  0  0  0  0  0  0  1  0  0
    4.9992   -1.2762    0.0000 C   0  0  0  0  0  0  0  0  0  2  0  0
    5.7430    0.0263    0.0000 C   0  0  0  0  0  0  0  0  0  3  0  0
    4.9869    1.3218    0.0000 C   0  0  0  0  0  0  0  0  0  4  0  0
    3.4870    1.3147    0.0000 C   0  0  0  0  0  0  0  0  0  5  0  0
    2.7431    0.0122    0.0000 C   0  0  0  0  0  0  0  0  0  6  0  0
    1.2431    0.0051    0.0000 C   0  0  0  0  0  0  0  0  0  7  0  0
    0.4870    1.3006    0.0000 C   0  0  0  0  0  0  0  0  0  8  0  0
    1.2309    2.6032    0.0000 C   0  0  0  0  0  0  0  0  0  9  0  0
    0.4748    3.8987    0.0000 O   0  0  0  0  0  0  0  0  0 10  0  0
    2.7309    2.6102    0.0000 O   0  0  0  0  0  0  0  0  0 11  0  0
    2.9041   -2.3253    0.0000 H   0  0  0  0  0  0  0  0  0  0  0  0
    7.2117   -0.2787    0.0000 O   0  0  0  0  0  0  0  0  0  0  0  0
    7.3755   -1.7697    0.0000 C   0  0  1  0  0  0  0  0  0  0  0  0
    6.0081   -2.3862    0.0000 C   0  0  0  0  0  0  0  0  0  0  0  0
    8.6781   -2.5136    0.0000 C   0  0  0  0  0  0  0  0  0  0  0  0
    7.9342   -3.8161    0.0000 C   0  0  0  0  0  0  0  0  0  0  0  0
    9.9806   -3.2575    0.0000 C   0  0  0  0  0  0  0  0  0  0  0  0
    9.4220   -1.2110    0.0000 O   0  0  0  0  0  0  0  0  0  0  0  0
    5.7308    2.6244    0.0000 O   0  0  0  0  0  0  0  0  0  0  0  0
    7.2308    2.6314    0.0000 C   0  0  1  0  0  0  0  0  0  0  0  0
    7.9747    3.9340    0.0000 C   0  0  1  0  0  0  0  0  0  0  0  0
    9.4747    3.9410    0.0000 C   0  0  2  0  0  0  0  0  0  0  0  0
   10.2308    2.6455    0.0000 C   0  0  1  0  0  0  0  0  0  0  0  0
    9.4869    1.3430    0.0000 C   0  0  2  0  0  0  0  0  0  0  0  0
    7.9869    1.3359    0.0000 O   0  0  0  0  0  0  0  0  0  0  0  0
   10.2430    0.0475    0.0000 C   0  0  0  0  0  0  0  0  0  0  0  0
   11.7430    0.0545    0.0000 O   0  0  0  0  0  0  0  0  0  0  0  0
   11.7308    2.6526    0.0000 O   0  0  0  0  0  0  0  0  0  0  0  0
   10.2186    5.2436    0.0000 O   0  0  0  0  0  0  0  0  0  0  0  0
    7.2186    5.2295    0.0000 O   0  0  0  0  0  0  0  0  0  0  0  0
   -0.7130    1.2950    0.0000 H   0  0  0  0  0  0  0  0  0  0  0  0
    1.2553   -2.5929    0.0000 C   0  0  0  0  0  0  0  0  0  0  0  0
    0.5114   -3.8955    0.0000 C   0  0  0  0  0  0  0  0  0  0  0  0
   -0.9886   -3.9025    0.0000 C   0  0  0  0  0  0  0  0  0  0  0  0
   -1.7447   -2.6070    0.0000 C   0  0  0  0  0  0  0  0  0  0  0  0
   -1.0008   -1.3045    0.0000 C   0  0  0  0  0  0  0  0  0  0  0  0
    0.4992   -1.2974    0.0000 C   0  0  0  0  0  0  0  0  0  0  0  0
   -1.7569   -0.0090    0.0000 O   0  0  0  0  0  0  0  0  0  0  0  0
   -3.2446   -2.6141    0.0000 O   0  0  0  0  0  0  0  0  0  0  0  0
   -1.7324   -5.2051    0.0000 O   0  0  0  0  0  0  0  0  0  0  0  0
  1  2  2  0  0  0  0
  1  6  1  0  0  0  0
  2  3  1  0  0  0  0
  3  4  2  0  0  0  0
  4  5  1  0  0  0  0
  5  6  2  0  0  0  0
  5 11  1  0  0  0  0
  6  7  1  0  0  0  0
  7  8  2  0  0  0  0
  8  9  1  0  0  0  0
  9 10  2  0  0  0  0
  9 11  1  0  0  0  0
  1 12  1  0  0  0  0
 13 14  1  0  0  0  0
 14 15  1  0  0  0  0
 14 16  1  6  0  0  0
 16 17  1  0  0  0  0
 16 18  1  0  0  0  0
 16 19  1  0  0  0  0
  2 15  1  0  0  0  0
  3 13  1  0  0  0  0
 21 20  1  6  0  0  0
 21 22  1  0  0  0  0
 21 26  1  0  0  0  0
 22 23  1  0  0  0  0
 22 31  1  1  0  0  0
 23 24  1  0  0  0  0
 23 30  1  6  0  0  0
 24 25  1  0  0  0  0
 24 29  1  1  0  0  0
 25 26  1  0  0  0  0
 25 27  1  6  0  0  0
 27 28  1  0  0  0  0
  4 20  1  0  0  0  0
  8 32  1  0  0  0  0
 33 34  2  0  0  0  0
 33 38  1  0  0  0  0
 34 35  1  0  0  0  0
 35 36  2  0  0  0  0
 35 41  1  0  0  0  0
 36 37  1  0  0  0  0
 36 40  1  0  0  0  0
 37 38  2  0  0  0  0
 37 39  1  0  0  0  0
  7 38  1  0  0  0  0
M  END
> <score_Kier2>
0.516479

$$$$
suggested molecule #64
 MOE2019            2D

 41 45  0  0  1  0  0  0  0  0999 V2000
    3.4992   -1.2833    0.0000 C   0  0  0  0  0  0  0  0  0  1  0  0
    4.9992   -1.2762    0.0000 C   0  0  0  0  0  0  0  0  0  2  0  0
    5.7430    0.0263    0.0000 C   0  0  0  0  0  0  0  0  0  3  0  0
    4.9869    1.3218    0.0000 C   0  0  0  0  0  0  0  0  0  4  0  0
    3.4870    1.3147    0.0000 C   0  0  0  0  0  0  0  0  0  5  0  0
    2.7431    0.0122    0.0000 C   0  0  0  0  0  0  0  0  0  6  0  0
    1.2431    0.0051    0.0000 C   0  0  0  0  0  0  0  0  0  7  0  0
    0.4870    1.3006    0.0000 C   0  0  0  0  0  0  0  0  0  8  0  0
    1.2309    2.6032    0.0000 C   0  0  0  0  0  0  0  0  0  9  0  0
    0.4748    3.8987    0.0000 O   0  0  0  0  0  0  0  0  0 10  0  0
    2.7309    2.6102    0.0000 O   0  0  0  0  0  0  0  0  0 11  0  0
    2.9041   -2.3253    0.0000 H   0  0  0  0  0  0  0  0  0  0  0  0
    7.2117   -0.2787    0.0000 O   0  0  0  0  0  0  0  0  0  0  0  0
    7.3755   -1.7697    0.0000 C   0  0  1  0  0  0  0  0  0  0  0  0
    6.0081   -2.3862    0.0000 C   0  0  0  0  0  0  0  0  0  0  0  0
    8.6781   -2.5136    0.0000 C   0  0  0  0  0  0  0  0  0  0  0  0
    7.9342   -3.8161    0.0000 C   0  0  0  0  0  0  0  0  0  0  0  0
    9.9806   -3.2575    0.0000 C   0  0  0  0  0  0  0  0  0  0  0  0
    9.4220   -1.2110    0.0000 O   0  0  0  0  0  0  0  0  0  0  0  0
    5.7308    2.6244    0.0000 O   0  0  0  0  0  0  0  0  0  0  0  0
    7.2308    2.6314    0.0000 C   0  0  1  0  0  0  0  0  0  0  0  0
    7.9747    3.9340    0.0000 C   0  0  1  0  0  0  0  0  0  0  0  0
    9.4747    3.9410    0.0000 C   0  0  2  0  0  0  0  0  0  0  0  0
   10.2308    2.6455    0.0000 C   0  0  1  0  0  0  0  0  0  0  0  0
    9.4869    1.3430    0.0000 C   0  0  2  0  0  0  0  0  0  0  0  0
    7.9869    1.3359    0.0000 O   0  0  0  0  0  0  0  0  0  0  0  0
   10.2430    0.0475    0.0000 C   0  0  0  0  0  0  0  0  0  0  0  0
   11.7430    0.0545    0.0000 O   0  0  0  0  0  0  0  0  0  0  0  0
   11.7308    2.6526    0.0000 O   0  0  0  0  0  0  0  0  0  0  0  0
   10.2186    5.2436    0.0000 O   0  0  0  0  0  0  0  0  0  0  0  0
    7.2186    5.2295    0.0000 O   0  0  0  0  0  0  0  0  0  0  0  0
   -0.7130    1.2950    0.0000 H   0  0  0  0  0  0  0  0  0  0  0  0
    1.2553   -2.5929    0.0000 C   0  0  0  0  0  0  0  0  0  0  0  0
    0.5114   -3.8955    0.0000 C   0  0  0  0  0  0  0  0  0  0  0  0
   -0.9886   -3.9025    0.0000 C   0  0  0  0  0  0  0  0  0  0  0  0
   -1.7447   -2.6070    0.0000 C   0  0  0  0  0  0  0  0  0  0  0  0
   -1.0008   -1.3045    0.0000 C   0  0  0  0  0  0  0  0  0  0  0  0
    0.4992   -1.2974    0.0000 C   0  0  0  0  0  0  0  0  0  0  0  0
   -1.7569   -0.0090    0.0000 O   0  0  0  0  0  0  0  0  0  0  0  0
   -3.2446   -2.6141    0.0000 O   0  0  0  0  0  0  0  0  0  0  0  0
   -1.7324   -5.2051    0.0000 O   0  0  0  0  0  0  0  0  0  0  0  0
  1  2  2  0  0  0  0
  1  6  1  0  0  0  0
  2  3  1  0  0  0  0
  3  4  2  0  0  0  0
  4  5  1  0  0  0  0
  5  6  2  0  0  0  0
  5 11  1  0  0  0  0
  6  7  1  0  0  0  0
  7  8  2  0  0  0  0
  8  9  1  0  0  0  0
  9 10  2  0  0  0  0
  9 11  1  0  0  0  0
  1 12  1  0  0  0  0
 13 14  1  0  0  0  0
 14 15  1  0  0  0  0
 14 16  1  6  0  0  0
 16 17  1  0  0  0  0
 16 18  1  0  0  0  0
 16 19  1  0  0  0  0
  2 15  1  0  0  0  0
  3 13  1  0  0  0  0
 21 20  1  6  0  0  0
 21 22  1  0  0  0  0
 21 26  1  0  0  0  0
 22 23  1  0  0  0  0
 22 31  1  1  0  0  0
 23 24  1  0  0  0  0
 23 30  1  6  0  0  0
 24 25  1  0  0  0  0
 24 29  1  1  0  0  0
 25 26  1  0  0  0  0
 25 27  1  6  0  0  0
 27 28  1  0  0  0  0
  4 20  1  0  0  0  0
  8 32  1  0  0  0  0
 33 34  2  0  0  0  0
 33 38  1  0  0  0  0
 34 35  1  0  0  0  0
 35 36  2  0  0  0  0
 35 41  1  0  0  0  0
 36 37  1  0  0  0  0
 36 40  1  0  0  0  0
 37 38  2  0  0  0  0
 37 39  1  0  0  0  0
  7 38  1  0  0  0  0
M  END
> <score_Kier3>
0.511588

$$$$
suggested molecule #65
 MOE2019            2D

 41 45  0  0  1  0  0  0  0  0999 V2000
    3.4992   -1.2833    0.0000 C   0  0  0  0  0  0  0  0  0  1  0  0
    4.9992   -1.2762    0.0000 C   0  0  0  0  0  0  0  0  0  2  0  0
    5.7430    0.0263    0.0000 C   0  0  0  0  0  0  0  0  0  3  0  0
    4.9869    1.3218    0.0000 C   0  0  0  0  0  0  0  0  0  4  0  0
    3.4870    1.3147    0.0000 C   0  0  0  0  0  0  0  0  0  5  0  0
    2.7431    0.0122    0.0000 C   0  0  0  0  0  0  0  0  0  6  0  0
    1.2431    0.0051    0.0000 C   0  0  0  0  0  0  0  0  0  7  0  0
    0.4870    1.3006    0.0000 C   0  0  0  0  0  0  0  0  0  8  0  0
    1.2309    2.6032    0.0000 C   0  0  0  0  0  0  0  0  0  9  0  0
    0.4748    3.8987    0.0000 O   0  0  0  0  0  0  0  0  0 10  0  0
    2.7309    2.6102    0.0000 O   0  0  0  0  0  0  0  0  0 11  0  0
    2.9041   -2.3253    0.0000 H   0  0  0  0  0  0  0  0  0  0  0  0
    7.2117   -0.2787    0.0000 O   0  0  0  0  0  0  0  0  0  0  0  0
    7.3755   -1.7697    0.0000 C   0  0  1  0  0  0  0  0  0  0  0  0
    6.0081   -2.3862    0.0000 C   0  0  0  0  0  0  0  0  0  0  0  0
    8.6781   -2.5136    0.0000 C   0  0  0  0  0  0  0  0  0  0  0  0
    7.9342   -3.8161    0.0000 C   0  0  0  0  0  0  0  0  0  0  0  0
    9.9806   -3.2575    0.0000 C   0  0  0  0  0  0  0  0  0  0  0  0
    9.4220   -1.2110    0.0000 O   0  0  0  0  0  0  0  0  0  0  0  0
    5.7308    2.6244    0.0000 O   0  0  0  0  0  0  0  0  0  0  0  0
    7.2308    2.6314    0.0000 C   0  0  1  0  0  0  0  0  0  0  0  0
    7.9747    3.9340    0.0000 C   0  0  1  0  0  0  0  0  0  0  0  0
    9.4747    3.9410    0.0000 C   0  0  2  0  0  0  0  0  0  0  0  0
   10.2308    2.6455    0.0000 C   0  0  1  0  0  0  0  0  0  0  0  0
    9.4869    1.3430    0.0000 C   0  0  2  0  0  0  0  0  0  0  0  0
    7.9869    1.3359    0.0000 O   0  0  0  0  0  0  0  0  0  0  0  0
   10.2430    0.0475    0.0000 C   0  0  0  0  0  0  0  0  0  0  0  0
   11.7430    0.0545    0.0000 O   0  0  0  0  0  0  0  0  0  0  0  0
   11.7308    2.6526    0.0000 O   0  0  0  0  0  0  0  0  0  0  0  0
   10.2186    5.2436    0.0000 O   0  0  0  0  0  0  0  0  0  0  0  0
    7.2186    5.2295    0.0000 O   0  0  0  0  0  0  0  0  0  0  0  0
   -0.7130    1.2950    0.0000 H   0  0  0  0  0  0  0  0  0  0  0  0
    1.2553   -2.5929    0.0000 C   0  0  0  0  0  0  0  0  0  0  0  0
    0.5114   -3.8955    0.0000 C   0  0  0  0  0  0  0  0  0  0  0  0
   -0.9886   -3.9025    0.0000 C   0  0  0  0  0  0  0  0  0  0  0  0
   -1.7447   -2.6070    0.0000 C   0  0  0  0  0  0  0  0  0  0  0  0
   -1.0008   -1.3045    0.0000 C   0  0  0  0  0  0  0  0  0  0  0  0
    0.4992   -1.2974    0.0000 C   0  0  0  0  0  0  0  0  0  0  0  0
   -1.7569   -0.0090    0.0000 O   0  0  0  0  0  0  0  0  0  0  0  0
   -3.2446   -2.6141    0.0000 O   0  0  0  0  0  0  0  0  0  0  0  0
   -1.7324   -5.2051    0.0000 O   0  0  0  0  0  0  0  0  0  0  0  0
  1  2  2  0  0  0  0
  1  6  1  0  0  0  0
  2  3  1  0  0  0  0
  3  4  2  0  0  0  0
  4  5  1  0  0  0  0
  5  6  2  0  0  0  0
  5 11  1  0  0  0  0
  6  7  1  0  0  0  0
  7  8  2  0  0  0  0
  8  9  1  0  0  0  0
  9 10  2  0  0  0  0
  9 11  1  0  0  0  0
  1 12  1  0  0  0  0
 13 14  1  0  0  0  0
 14 15  1  0  0  0  0
 14 16  1  6  0  0  0
 16 17  1  0  0  0  0
 16 18  1  0  0  0  0
 16 19  1  0  0  0  0
  2 15  1  0  0  0  0
  3 13  1  0  0  0  0
 21 20  1  6  0  0  0
 21 22  1  0  0  0  0
 21 26  1  0  0  0  0
 22 23  1  0  0  0  0
 22 31  1  1  0  0  0
 23 24  1  0  0  0  0
 23 30  1  6  0  0  0
 24 25  1  0  0  0  0
 24 29  1  1  0  0  0
 25 26  1  0  0  0  0
 25 27  1  6  0  0  0
 27 28  1  0  0  0  0
  4 20  1  0  0  0  0
  8 32  1  0  0  0  0
 33 34  2  0  0  0  0
 33 38  1  0  0  0  0
 34 35  1  0  0  0  0
 35 36  2  0  0  0  0
 35 41  1  0  0  0  0
 36 37  1  0  0  0  0
 36 40  1  0  0  0  0
 37 38  2  0  0  0  0
 37 39  1  0  0  0  0
  7 38  1  0  0  0  0
M  END
> <score_KierA1>
0.517649

$$$$
suggested molecule #66
 MOE2019            2D

 41 45  0  0  1  0  0  0  0  0999 V2000
    3.4992   -1.2833    0.0000 C   0  0  0  0  0  0  0  0  0  1  0  0
    4.9992   -1.2762    0.0000 C   0  0  0  0  0  0  0  0  0  2  0  0
    5.7430    0.0263    0.0000 C   0  0  0  0  0  0  0  0  0  3  0  0
    4.9869    1.3218    0.0000 C   0  0  0  0  0  0  0  0  0  4  0  0
    3.4870    1.3147    0.0000 C   0  0  0  0  0  0  0  0  0  5  0  0
    2.7431    0.0122    0.0000 C   0  0  0  0  0  0  0  0  0  6  0  0
    1.2431    0.0051    0.0000 C   0  0  0  0  0  0  0  0  0  7  0  0
    0.4870    1.3006    0.0000 C   0  0  0  0  0  0  0  0  0  8  0  0
    1.2309    2.6032    0.0000 C   0  0  0  0  0  0  0  0  0  9  0  0
    0.4748    3.8987    0.0000 O   0  0  0  0  0  0  0  0  0 10  0  0
    2.7309    2.6102    0.0000 O   0  0  0  0  0  0  0  0  0 11  0  0
    2.9041   -2.3253    0.0000 H   0  0  0  0  0  0  0  0  0  0  0  0
    7.2117   -0.2787    0.0000 O   0  0  0  0  0  0  0  0  0  0  0  0
    7.3755   -1.7697    0.0000 C   0  0  1  0  0  0  0  0  0  0  0  0
    6.0081   -2.3862    0.0000 C   0  0  0  0  0  0  0  0  0  0  0  0
    8.6781   -2.5136    0.0000 C   0  0  0  0  0  0  0  0  0  0  0  0
    7.9342   -3.8161    0.0000 C   0  0  0  0  0  0  0  0  0  0  0  0
    9.9806   -3.2575    0.0000 C   0  0  0  0  0  0  0  0  0  0  0  0
    9.4220   -1.2110    0.0000 O   0  0  0  0  0  0  0  0  0  0  0  0
    5.7308    2.6244    0.0000 O   0  0  0  0  0  0  0  0  0  0  0  0
    7.2308    2.6314    0.0000 C   0  0  1  0  0  0  0  0  0  0  0  0
    7.9747    3.9340    0.0000 C   0  0  1  0  0  0  0  0  0  0  0  0
    9.4747    3.9410    0.0000 C   0  0  2  0  0  0  0  0  0  0  0  0
   10.2308    2.6455    0.0000 C   0  0  1  0  0  0  0  0  0  0  0  0
    9.4869    1.3430    0.0000 C   0  0  2  0  0  0  0  0  0  0  0  0
    7.9869    1.3359    0.0000 O   0  0  0  0  0  0  0  0  0  0  0  0
   10.2430    0.0475    0.0000 C   0  0  0  0  0  0  0  0  0  0  0  0
   11.7430    0.0545    0.0000 O   0  0  0  0  0  0  0  0  0  0  0  0
   11.7308    2.6526    0.0000 O   0  0  0  0  0  0  0  0  0  0  0  0
   10.2186    5.2436    0.0000 O   0  0  0  0  0  0  0  0  0  0  0  0
    7.2186    5.2295    0.0000 O   0  0  0  0  0  0  0  0  0  0  0  0
   -0.7130    1.2950    0.0000 H   0  0  0  0  0  0  0  0  0  0  0  0
    1.2553   -2.5929    0.0000 C   0  0  0  0  0  0  0  0  0  0  0  0
    0.5114   -3.8955    0.0000 C   0  0  0  0  0  0  0  0  0  0  0  0
   -0.9886   -3.9025    0.0000 C   0  0  0  0  0  0  0  0  0  0  0  0
   -1.7447   -2.6070    0.0000 C   0  0  0  0  0  0  0  0  0  0  0  0
   -1.0008   -1.3045    0.0000 C   0  0  0  0  0  0  0  0  0  0  0  0
    0.4992   -1.2974    0.0000 C   0  0  0  0  0  0  0  0  0  0  0  0
   -1.7569   -0.0090    0.0000 O   0  0  0  0  0  0  0  0  0  0  0  0
   -3.2446   -2.6141    0.0000 O   0  0  0  0  0  0  0  0  0  0  0  0
   -1.7324   -5.2051    0.0000 O   0  0  0  0  0  0  0  0  0  0  0  0
  1  2  2  0  0  0  0
  1  6  1  0  0  0  0
  2  3  1  0  0  0  0
  3  4  2  0  0  0  0
  4  5  1  0  0  0  0
  5  6  2  0  0  0  0
  5 11  1  0  0  0  0
  6  7  1  0  0  0  0
  7  8  2  0  0  0  0
  8  9  1  0  0  0  0
  9 10  2  0  0  0  0
  9 11  1  0  0  0  0
  1 12  1  0  0  0  0
 13 14  1  0  0  0  0
 14 15  1  0  0  0  0
 14 16  1  6  0  0  0
 16 17  1  0  0  0  0
 16 18  1  0  0  0  0
 16 19  1  0  0  0  0
  2 15  1  0  0  0  0
  3 13  1  0  0  0  0
 21 20  1  6  0  0  0
 21 22  1  0  0  0  0
 21 26  1  0  0  0  0
 22 23  1  0  0  0  0
 22 31  1  1  0  0  0
 23 24  1  0  0  0  0
 23 30  1  6  0  0  0
 24 25  1  0  0  0  0
 24 29  1  1  0  0  0
 25 26  1  0  0  0  0
 25 27  1  6  0  0  0
 27 28  1  0  0  0  0
  4 20  1  0  0  0  0
  8 32  1  0  0  0  0
 33 34  2  0  0  0  0
 33 38  1  0  0  0  0
 34 35  1  0  0  0  0
 35 36  2  0  0  0  0
 35 41  1  0  0  0  0
 36 37  1  0  0  0  0
 36 40  1  0  0  0  0
 37 38  2  0  0  0  0
 37 39  1  0  0  0  0
  7 38  1  0  0  0  0
M  END
> <score_KierA2>
0.516769

$$$$
suggested molecule #67
 MOE2019            2D

 41 45  0  0  1  0  0  0  0  0999 V2000
    3.4992   -1.2833    0.0000 C   0  0  0  0  0  0  0  0  0  1  0  0
    4.9992   -1.2762    0.0000 C   0  0  0  0  0  0  0  0  0  2  0  0
    5.7430    0.0263    0.0000 C   0  0  0  0  0  0  0  0  0  3  0  0
    4.9869    1.3218    0.0000 C   0  0  0  0  0  0  0  0  0  4  0  0
    3.4870    1.3147    0.0000 C   0  0  0  0  0  0  0  0  0  5  0  0
    2.7431    0.0122    0.0000 C   0  0  0  0  0  0  0  0  0  6  0  0
    1.2431    0.0051    0.0000 C   0  0  0  0  0  0  0  0  0  7  0  0
    0.4870    1.3006    0.0000 C   0  0  0  0  0  0  0  0  0  8  0  0
    1.2309    2.6032    0.0000 C   0  0  0  0  0  0  0  0  0  9  0  0
    0.4748    3.8987    0.0000 O   0  0  0  0  0  0  0  0  0 10  0  0
    2.7309    2.6102    0.0000 O   0  0  0  0  0  0  0  0  0 11  0  0
    2.9041   -2.3253    0.0000 H   0  0  0  0  0  0  0  0  0  0  0  0
    7.2117   -0.2787    0.0000 O   0  0  0  0  0  0  0  0  0  0  0  0
    7.3755   -1.7697    0.0000 C   0  0  1  0  0  0  0  0  0  0  0  0
    6.0081   -2.3862    0.0000 C   0  0  0  0  0  0  0  0  0  0  0  0
    8.6781   -2.5136    0.0000 C   0  0  0  0  0  0  0  0  0  0  0  0
    7.9342   -3.8161    0.0000 C   0  0  0  0  0  0  0  0  0  0  0  0
    9.9806   -3.2575    0.0000 C   0  0  0  0  0  0  0  0  0  0  0  0
    9.4220   -1.2110    0.0000 O   0  0  0  0  0  0  0  0  0  0  0  0
    5.7308    2.6244    0.0000 O   0  0  0  0  0  0  0  0  0  0  0  0
    7.2308    2.6314    0.0000 C   0  0  1  0  0  0  0  0  0  0  0  0
    7.9747    3.9340    0.0000 C   0  0  1  0  0  0  0  0  0  0  0  0
    9.4747    3.9410    0.0000 C   0  0  2  0  0  0  0  0  0  0  0  0
   10.2308    2.6455    0.0000 C   0  0  1  0  0  0  0  0  0  0  0  0
    9.4869    1.3430    0.0000 C   0  0  2  0  0  0  0  0  0  0  0  0
    7.9869    1.3359    0.0000 O   0  0  0  0  0  0  0  0  0  0  0  0
   10.2430    0.0475    0.0000 C   0  0  0  0  0  0  0  0  0  0  0  0
   11.7430    0.0545    0.0000 O   0  0  0  0  0  0  0  0  0  0  0  0
   11.7308    2.6526    0.0000 O   0  0  0  0  0  0  0  0  0  0  0  0
   10.2186    5.2436    0.0000 O   0  0  0  0  0  0  0  0  0  0  0  0
    7.2186    5.2295    0.0000 O   0  0  0  0  0  0  0  0  0  0  0  0
   -0.7130    1.2950    0.0000 H   0  0  0  0  0  0  0  0  0  0  0  0
    1.2553   -2.5929    0.0000 C   0  0  0  0  0  0  0  0  0  0  0  0
    0.5114   -3.8955    0.0000 C   0  0  0  0  0  0  0  0  0  0  0  0
   -0.9886   -3.9025    0.0000 C   0  0  0  0  0  0  0  0  0  0  0  0
   -1.7447   -2.6070    0.0000 C   0  0  0  0  0  0  0  0  0  0  0  0
   -1.0008   -1.3045    0.0000 C   0  0  0  0  0  0  0  0  0  0  0  0
    0.4992   -1.2974    0.0000 C   0  0  0  0  0  0  0  0  0  0  0  0
   -1.7569   -0.0090    0.0000 O   0  0  0  0  0  0  0  0  0  0  0  0
   -3.2446   -2.6141    0.0000 O   0  0  0  0  0  0  0  0  0  0  0  0
   -1.7324   -5.2051    0.0000 O   0  0  0  0  0  0  0  0  0  0  0  0
  1  2  2  0  0  0  0
  1  6  1  0  0  0  0
  2  3  1  0  0  0  0
  3  4  2  0  0  0  0
  4  5  1  0  0  0  0
  5  6  2  0  0  0  0
  5 11  1  0  0  0  0
  6  7  1  0  0  0  0
  7  8  2  0  0  0  0
  8  9  1  0  0  0  0
  9 10  2  0  0  0  0
  9 11  1  0  0  0  0
  1 12  1  0  0  0  0
 13 14  1  0  0  0  0
 14 15  1  0  0  0  0
 14 16  1  6  0  0  0
 16 17  1  0  0  0  0
 16 18  1  0  0  0  0
 16 19  1  0  0  0  0
  2 15  1  0  0  0  0
  3 13  1  0  0  0  0
 21 20  1  6  0  0  0
 21 22  1  0  0  0  0
 21 26  1  0  0  0  0
 22 23  1  0  0  0  0
 22 31  1  1  0  0  0
 23 24  1  0  0  0  0
 23 30  1  6  0  0  0
 24 25  1  0  0  0  0
 24 29  1  1  0  0  0
 25 26  1  0  0  0  0
 25 27  1  6  0  0  0
 27 28  1  0  0  0  0
  4 20  1  0  0  0  0
  8 32  1  0  0  0  0
 33 34  2  0  0  0  0
 33 38  1  0  0  0  0
 34 35  1  0  0  0  0
 35 36  2  0  0  0  0
 35 41  1  0  0  0  0
 36 37  1  0  0  0  0
 36 40  1  0  0  0  0
 37 38  2  0  0  0  0
 37 39  1  0  0  0  0
  7 38  1  0  0  0  0
M  END
> <score_KierA3>
0.512207

$$$$
suggested molecule #68
 MOE2019            2D

 41 45  0  0  1  0  0  0  0  0999 V2000
    3.4992   -1.2833    0.0000 C   0  0  0  0  0  0  0  0  0  1  0  0
    4.9992   -1.2762    0.0000 C   0  0  0  0  0  0  0  0  0  2  0  0
    5.7430    0.0263    0.0000 C   0  0  0  0  0  0  0  0  0  3  0  0
    4.9869    1.3218    0.0000 C   0  0  0  0  0  0  0  0  0  4  0  0
    3.4870    1.3147    0.0000 C   0  0  0  0  0  0  0  0  0  5  0  0
    2.7431    0.0122    0.0000 C   0  0  0  0  0  0  0  0  0  6  0  0
    1.2431    0.0051    0.0000 C   0  0  0  0  0  0  0  0  0  7  0  0
    0.4870    1.3006    0.0000 C   0  0  0  0  0  0  0  0  0  8  0  0
    1.2309    2.6032    0.0000 C   0  0  0  0  0  0  0  0  0  9  0  0
    0.4748    3.8987    0.0000 O   0  0  0  0  0  0  0  0  0 10  0  0
    2.7309    2.6102    0.0000 O   0  0  0  0  0  0  0  0  0 11  0  0
    2.9041   -2.3253    0.0000 H   0  0  0  0  0  0  0  0  0  0  0  0
    7.2117   -0.2787    0.0000 O   0  0  0  0  0  0  0  0  0  0  0  0
    7.3755   -1.7697    0.0000 C   0  0  1  0  0  0  0  0  0  0  0  0
    6.0081   -2.3862    0.0000 C   0  0  0  0  0  0  0  0  0  0  0  0
    8.6781   -2.5136    0.0000 C   0  0  0  0  0  0  0  0  0  0  0  0
    7.9342   -3.8161    0.0000 C   0  0  0  0  0  0  0  0  0  0  0  0
    9.9806   -3.2575    0.0000 C   0  0  0  0  0  0  0  0  0  0  0  0
    9.4220   -1.2110    0.0000 O   0  0  0  0  0  0  0  0  0  0  0  0
    5.7308    2.6244    0.0000 O   0  0  0  0  0  0  0  0  0  0  0  0
    7.2308    2.6314    0.0000 C   0  0  1  0  0  0  0  0  0  0  0  0
    7.9747    3.9340    0.0000 C   0  0  1  0  0  0  0  0  0  0  0  0
    9.4747    3.9410    0.0000 C   0  0  2  0  0  0  0  0  0  0  0  0
   10.2308    2.6455    0.0000 C   0  0  1  0  0  0  0  0  0  0  0  0
    9.4869    1.3430    0.0000 C   0  0  2  0  0  0  0  0  0  0  0  0
    7.9869    1.3359    0.0000 O   0  0  0  0  0  0  0  0  0  0  0  0
   10.2430    0.0475    0.0000 C   0  0  0  0  0  0  0  0  0  0  0  0
   11.7430    0.0545    0.0000 O   0  0  0  0  0  0  0  0  0  0  0  0
   11.7308    2.6526    0.0000 O   0  0  0  0  0  0  0  0  0  0  0  0
   10.2186    5.2436    0.0000 O   0  0  0  0  0  0  0  0  0  0  0  0
    7.2186    5.2295    0.0000 O   0  0  0  0  0  0  0  0  0  0  0  0
   -0.7130    1.2950    0.0000 H   0  0  0  0  0  0  0  0  0  0  0  0
    1.2553   -2.5929    0.0000 C   0  0  0  0  0  0  0  0  0  0  0  0
    0.5114   -3.8955    0.0000 C   0  0  0  0  0  0  0  0  0  0  0  0
   -0.9886   -3.9025    0.0000 C   0  0  0  0  0  0  0  0  0  0  0  0
   -1.7447   -2.6070    0.0000 C   0  0  0  0  0  0  0  0  0  0  0  0
   -1.0008   -1.3045    0.0000 C   0  0  0  0  0  0  0  0  0  0  0  0
    0.4992   -1.2974    0.0000 C   0  0  0  0  0  0  0  0  0  0  0  0
   -1.7569   -0.0090    0.0000 O   0  0  0  0  0  0  0  0  0  0  0  0
   -3.2446   -2.6141    0.0000 O   0  0  0  0  0  0  0  0  0  0  0  0
   -1.7324   -5.2051    0.0000 O   0  0  0  0  0  0  0  0  0  0  0  0
  1  2  2  0  0  0  0
  1  6  1  0  0  0  0
  2  3  1  0  0  0  0
  3  4  2  0  0  0  0
  4  5  1  0  0  0  0
  5  6  2  0  0  0  0
  5 11  1  0  0  0  0
  6  7  1  0  0  0  0
  7  8  2  0  0  0  0
  8  9  1  0  0  0  0
  9 10  2  0  0  0  0
  9 11  1  0  0  0  0
  1 12  1  0  0  0  0
 13 14  1  0  0  0  0
 14 15  1  0  0  0  0
 14 16  1  6  0  0  0
 16 17  1  0  0  0  0
 16 18  1  0  0  0  0
 16 19  1  0  0  0  0
  2 15  1  0  0  0  0
  3 13  1  0  0  0  0
 21 20  1  6  0  0  0
 21 22  1  0  0  0  0
 21 26  1  0  0  0  0
 22 23  1  0  0  0  0
 22 31  1  1  0  0  0
 23 24  1  0  0  0  0
 23 30  1  6  0  0  0
 24 25  1  0  0  0  0
 24 29  1  1  0  0  0
 25 26  1  0  0  0  0
 25 27  1  6  0  0  0
 27 28  1  0  0  0  0
  4 20  1  0  0  0  0
  8 32  1  0  0  0  0
 33 34  2  0  0  0  0
 33 38  1  0  0  0  0
 34 35  1  0  0  0  0
 35 36  2  0  0  0  0
 35 41  1  0  0  0  0
 36 37  1  0  0  0  0
 36 40  1  0  0  0  0
 37 38  2  0  0  0  0
 37 39  1  0  0  0  0
  7 38  1  0  0  0  0
M  END
> <score_KierFlex>
0.51641

$$$$
suggested molecule #69
 MOE2019            2D

 40 44  0  0  1  0  0  0  0  0999 V2000
    3.4992   -1.2833    0.0000 C   0  0  0  0  0  0  0  0  0  1  0  0
    4.9992   -1.2762    0.0000 C   0  0  0  0  0  0  0  0  0  2  0  0
    5.7430    0.0263    0.0000 C   0  0  0  0  0  0  0  0  0  3  0  0
    4.9869    1.3218    0.0000 C   0  0  0  0  0  0  0  0  0  4  0  0
    3.4870    1.3147    0.0000 C   0  0  0  0  0  0  0  0  0  5  0  0
    2.7431    0.0122    0.0000 C   0  0  0  0  0  0  0  0  0  6  0  0
    1.2431    0.0051    0.0000 C   0  0  0  0  0  0  0  0  0  7  0  0
    0.4870    1.3006    0.0000 C   0  0  0  0  0  0  0  0  0  8  0  0
    1.2309    2.6032    0.0000 C   0  0  0  0  0  0  0  0  0  9  0  0
    0.4748    3.8987    0.0000 O   0  0  0  0  0  0  0  0  0 10  0  0
    2.7309    2.6102    0.0000 O   0  0  0  0  0  0  0  0  0 11  0  0
    2.9041   -2.3253    0.0000 H   0  0  0  0  0  0  0  0  0  0  0  0
    7.2117   -0.2787    0.0000 O   0  0  0  0  0  0  0  0  0  0  0  0
    7.3755   -1.7697    0.0000 C   0  0  1  0  0  0  0  0  0  0  0  0
    6.0081   -2.3862    0.0000 C   0  0  0  0  0  0  0  0  0  0  0  0
    8.6781   -2.5136    0.0000 C   0  0  0  0  0  0  0  0  0  0  0  0
    7.9342   -3.8161    0.0000 C   0  0  0  0  0  0  0  0  0  0  0  0
    9.4220   -1.2110    0.0000 C   0  0  0  0  0  0  0  0  0  0  0  0
    9.9806   -3.2575    0.0000 O   0  0  0  0  0  0  0  0  0  0  0  0
    5.7308    2.6244    0.0000 O   0  0  0  0  0  0  0  0  0  0  0  0
    7.2308    2.6314    0.0000 C   0  0  1  0  0  0  0  0  0  0  0  0
    7.9747    3.9340    0.0000 C   0  0  1  0  0  0  0  0  0  0  0  0
    9.4747    3.9410    0.0000 C   0  0  2  0  0  0  0  0  0  0  0  0
   10.2308    2.6455    0.0000 C   0  0  1  0  0  0  0  0  0  0  0  0
    9.4869    1.3430    0.0000 C   0  0  2  0  0  0  0  0  0  0  0  0
    7.9869    1.3359    0.0000 O   0  0  0  0  0  0  0  0  0  0  0  0
   10.2430    0.0475    0.0000 C   0  0  0  0  0  0  0  0  0  0  0  0
   11.7430    0.0545    0.0000 O   0  0  0  0  0  0  0  0  0  0  0  0
   11.7308    2.6526    0.0000 O   0  0  0  0  0  0  0  0  0  0  0  0
   10.2186    5.2436    0.0000 O   0  0  0  0  0  0  0  0  0  0  0  0
    7.2186    5.2295    0.0000 O   0  0  0  0  0  0  0  0  0  0  0  0
   -0.7130    1.2950    0.0000 H   0  0  0  0  0  0  0  0  0  0  0  0
    0.4992   -1.2974    0.0000 C   0  0  0  0  0  0  0  0  0  0  0  0
   -1.0008   -1.3045    0.0000 C   0  0  0  0  0  0  0  0  0  0  0  0
   -1.7447   -2.6070    0.0000 C   0  0  0  0  0  0  0  0  0  0  0  0
   -0.9886   -3.9025    0.0000 C   0  0  0  0  0  0  0  0  0  0  0  0
    0.5114   -3.8955    0.0000 C   0  0  0  0  0  0  0  0  0  0  0  0
    1.2553   -2.5929    0.0000 C   0  0  0  0  0  0  0  0  0  0  0  0
   -1.7324   -5.2051    0.0000 O   0  0  0  0  0  0  0  0  0  0  0  0
   -1.7569   -0.0090    0.0000 O   0  0  0  0  0  0  0  0  0  0  0  0
  1  2  2  0  0  0  0
  1  6  1  0  0  0  0
  2  3  1  0  0  0  0
  3  4  2  0  0  0  0
  4  5  1  0  0  0  0
  5  6  2  0  0  0  0
  5 11  1  0  0  0  0
  6  7  1  0  0  0  0
  7  8  2  0  0  0  0
  8  9  1  0  0  0  0
  9 10  2  0  0  0  0
  9 11  1  0  0  0  0
  1 12  1  0  0  0  0
 13 14  1  0  0  0  0
 14 15  1  0  0  0  0
 14 16  1  6  0  0  0
 16 17  1  0  0  0  0
 16 18  1  0  0  0  0
 16 19  1  0  0  0  0
  2 15  1  0  0  0  0
  3 13  1  0  0  0  0
 21 20  1  6  0  0  0
 21 22  1  0  0  0  0
 21 26  1  0  0  0  0
 22 23  1  0  0  0  0
 22 31  1  1  0  0  0
 23 24  1  0  0  0  0
 23 30  1  6  0  0  0
 24 25  1  0  0  0  0
 24 29  1  1  0  0  0
 25 26  1  0  0  0  0
 25 27  1  6  0  0  0
 27 28  1  0  0  0  0
  4 20  1  0  0  0  0
  8 32  1  0  0  0  0
 33 34  2  0  0  0  0
 33 38  1  0  0  0  0
 34 35  1  0  0  0  0
 34 40  1  0  0  0  0
 35 36  2  0  0  0  0
 36 37  1  0  0  0  0
 36 39  1  0  0  0  0
 37 38  2  0  0  0  0
  7 33  1  0  0  0  0
M  END
> <score_Kier3>
0.511548

$$$$
suggested molecule #70
 MOE2019            2D

 40 44  0  0  1  0  0  0  0  0999 V2000
    3.4992   -1.2833    0.0000 C   0  0  0  0  0  0  0  0  0  1  0  0
    4.9992   -1.2762    0.0000 C   0  0  0  0  0  0  0  0  0  2  0  0
    5.7430    0.0263    0.0000 C   0  0  0  0  0  0  0  0  0  3  0  0
    4.9869    1.3218    0.0000 C   0  0  0  0  0  0  0  0  0  4  0  0
    3.4870    1.3147    0.0000 C   0  0  0  0  0  0  0  0  0  5  0  0
    2.7431    0.0122    0.0000 C   0  0  0  0  0  0  0  0  0  6  0  0
    1.2431    0.0051    0.0000 C   0  0  0  0  0  0  0  0  0  7  0  0
    0.4870    1.3006    0.0000 C   0  0  0  0  0  0  0  0  0  8  0  0
    1.2309    2.6032    0.0000 C   0  0  0  0  0  0  0  0  0  9  0  0
    0.4748    3.8987    0.0000 O   0  0  0  0  0  0  0  0  0 10  0  0
    2.7309    2.6102    0.0000 O   0  0  0  0  0  0  0  0  0 11  0  0
    2.9041   -2.3253    0.0000 H   0  0  0  0  0  0  0  0  0  0  0  0
    7.2117   -0.2787    0.0000 O   0  0  0  0  0  0  0  0  0  0  0  0
    7.3755   -1.7697    0.0000 C   0  0  1  0  0  0  0  0  0  0  0  0
    6.0081   -2.3862    0.0000 C   0  0  0  0  0  0  0  0  0  0  0  0
    8.6781   -2.5136    0.0000 C   0  0  0  0  0  0  0  0  0  0  0  0
    7.9342   -3.8161    0.0000 C   0  0  0  0  0  0  0  0  0  0  0  0
    9.4220   -1.2110    0.0000 C   0  0  0  0  0  0  0  0  0  0  0  0
    9.9806   -3.2575    0.0000 O   0  0  0  0  0  0  0  0  0  0  0  0
    5.7308    2.6244    0.0000 O   0  0  0  0  0  0  0  0  0  0  0  0
    7.2308    2.6314    0.0000 C   0  0  1  0  0  0  0  0  0  0  0  0
    7.9747    3.9340    0.0000 C   0  0  1  0  0  0  0  0  0  0  0  0
    9.4747    3.9410    0.0000 C   0  0  2  0  0  0  0  0  0  0  0  0
   10.2308    2.6455    0.0000 C   0  0  1  0  0  0  0  0  0  0  0  0
    9.4869    1.3430    0.0000 C   0  0  2  0  0  0  0  0  0  0  0  0
    7.9869    1.3359    0.0000 O   0  0  0  0  0  0  0  0  0  0  0  0
   10.2430    0.0475    0.0000 C   0  0  0  0  0  0  0  0  0  0  0  0
   11.7430    0.0545    0.0000 O   0  0  0  0  0  0  0  0  0  0  0  0
   11.7308    2.6526    0.0000 O   0  0  0  0  0  0  0  0  0  0  0  0
   10.2186    5.2436    0.0000 O   0  0  0  0  0  0  0  0  0  0  0  0
    7.2186    5.2295    0.0000 O   0  0  0  0  0  0  0  0  0  0  0  0
   -0.7130    1.2950    0.0000 H   0  0  0  0  0  0  0  0  0  0  0  0
    0.4992   -1.2974    0.0000 C   0  0  0  0  0  0  0  0  0  0  0  0
   -1.0008   -1.3045    0.0000 C   0  0  0  0  0  0  0  0  0  0  0  0
   -1.7447   -2.6070    0.0000 C   0  0  0  0  0  0  0  0  0  0  0  0
   -0.9886   -3.9025    0.0000 C   0  0  0  0  0  0  0  0  0  0  0  0
    0.5114   -3.8955    0.0000 C   0  0  0  0  0  0  0  0  0  0  0  0
    1.2553   -2.5929    0.0000 C   0  0  0  0  0  0  0  0  0  0  0  0
   -1.7324   -5.2051    0.0000 O   0  0  0  0  0  0  0  0  0  0  0  0
   -1.7569   -0.0090    0.0000 O   0  0  0  0  0  0  0  0  0  0  0  0
  1  2  2  0  0  0  0
  1  6  1  0  0  0  0
  2  3  1  0  0  0  0
  3  4  2  0  0  0  0
  4  5  1  0  0  0  0
  5  6  2  0  0  0  0
  5 11  1  0  0  0  0
  6  7  1  0  0  0  0
  7  8  2  0  0  0  0
  8  9  1  0  0  0  0
  9 10  2  0  0  0  0
  9 11  1  0  0  0  0
  1 12  1  0  0  0  0
 13 14  1  0  0  0  0
 14 15  1  0  0  0  0
 14 16  1  6  0  0  0
 16 17  1  0  0  0  0
 16 18  1  0  0  0  0
 16 19  1  0  0  0  0
  2 15  1  0  0  0  0
  3 13  1  0  0  0  0
 21 20  1  6  0  0  0
 21 22  1  0  0  0  0
 21 26  1  0  0  0  0
 22 23  1  0  0  0  0
 22 31  1  1  0  0  0
 23 24  1  0  0  0  0
 23 30  1  6  0  0  0
 24 25  1  0  0  0  0
 24 29  1  1  0  0  0
 25 26  1  0  0  0  0
 25 27  1  6  0  0  0
 27 28  1  0  0  0  0
  4 20  1  0  0  0  0
  8 32  1  0  0  0  0
 33 34  2  0  0  0  0
 33 38  1  0  0  0  0
 34 35  1  0  0  0  0
 34 40  1  0  0  0  0
 35 36  2  0  0  0  0
 36 37  1  0  0  0  0
 36 39  1  0  0  0  0
 37 38  2  0  0  0  0
  7 33  1  0  0  0  0
M  END
> <score_KierA1>
0.517614

$$$$
suggested molecule #71
 MOE2019            2D

 40 44  0  0  1  0  0  0  0  0999 V2000
    3.4992   -1.2833    0.0000 C   0  0  0  0  0  0  0  0  0  1  0  0
    4.9992   -1.2762    0.0000 C   0  0  0  0  0  0  0  0  0  2  0  0
    5.7430    0.0263    0.0000 C   0  0  0  0  0  0  0  0  0  3  0  0
    4.9869    1.3218    0.0000 C   0  0  0  0  0  0  0  0  0  4  0  0
    3.4870    1.3147    0.0000 C   0  0  0  0  0  0  0  0  0  5  0  0
    2.7431    0.0122    0.0000 C   0  0  0  0  0  0  0  0  0  6  0  0
    1.2431    0.0051    0.0000 C   0  0  0  0  0  0  0  0  0  7  0  0
    0.4870    1.3006    0.0000 C   0  0  0  0  0  0  0  0  0  8  0  0
    1.2309    2.6032    0.0000 C   0  0  0  0  0  0  0  0  0  9  0  0
    0.4748    3.8987    0.0000 O   0  0  0  0  0  0  0  0  0 10  0  0
    2.7309    2.6102    0.0000 O   0  0  0  0  0  0  0  0  0 11  0  0
    2.9041   -2.3253    0.0000 H   0  0  0  0  0  0  0  0  0  0  0  0
    7.2117   -0.2787    0.0000 O   0  0  0  0  0  0  0  0  0  0  0  0
    7.3755   -1.7697    0.0000 C   0  0  1  0  0  0  0  0  0  0  0  0
    6.0081   -2.3862    0.0000 C   0  0  0  0  0  0  0  0  0  0  0  0
    8.6781   -2.5136    0.0000 C   0  0  0  0  0  0  0  0  0  0  0  0
    7.9342   -3.8161    0.0000 C   0  0  0  0  0  0  0  0  0  0  0  0
    9.4220   -1.2110    0.0000 C   0  0  0  0  0  0  0  0  0  0  0  0
    9.9806   -3.2575    0.0000 O   0  0  0  0  0  0  0  0  0  0  0  0
    5.7308    2.6244    0.0000 O   0  0  0  0  0  0  0  0  0  0  0  0
    7.2308    2.6314    0.0000 C   0  0  1  0  0  0  0  0  0  0  0  0
    7.9747    3.9340    0.0000 C   0  0  1  0  0  0  0  0  0  0  0  0
    9.4747    3.9410    0.0000 C   0  0  2  0  0  0  0  0  0  0  0  0
   10.2308    2.6455    0.0000 C   0  0  1  0  0  0  0  0  0  0  0  0
    9.4869    1.3430    0.0000 C   0  0  2  0  0  0  0  0  0  0  0  0
    7.9869    1.3359    0.0000 O   0  0  0  0  0  0  0  0  0  0  0  0
   10.2430    0.0475    0.0000 C   0  0  0  0  0  0  0  0  0  0  0  0
   11.7430    0.0545    0.0000 O   0  0  0  0  0  0  0  0  0  0  0  0
   11.7308    2.6526    0.0000 O   0  0  0  0  0  0  0  0  0  0  0  0
   10.2186    5.2436    0.0000 O   0  0  0  0  0  0  0  0  0  0  0  0
    7.2186    5.2295    0.0000 O   0  0  0  0  0  0  0  0  0  0  0  0
   -0.7130    1.2950    0.0000 H   0  0  0  0  0  0  0  0  0  0  0  0
    0.4992   -1.2974    0.0000 C   0  0  0  0  0  0  0  0  0  0  0  0
   -1.0008   -1.3045    0.0000 C   0  0  0  0  0  0  0  0  0  0  0  0
   -1.7447   -2.6070    0.0000 C   0  0  0  0  0  0  0  0  0  0  0  0
   -0.9886   -3.9025    0.0000 C   0  0  0  0  0  0  0  0  0  0  0  0
    0.5114   -3.8955    0.0000 C   0  0  0  0  0  0  0  0  0  0  0  0
    1.2553   -2.5929    0.0000 C   0  0  0  0  0  0  0  0  0  0  0  0
   -1.7324   -5.2051    0.0000 O   0  0  0  0  0  0  0  0  0  0  0  0
   -1.7569   -0.0090    0.0000 O   0  0  0  0  0  0  0  0  0  0  0  0
  1  2  2  0  0  0  0
  1  6  1  0  0  0  0
  2  3  1  0  0  0  0
  3  4  2  0  0  0  0
  4  5  1  0  0  0  0
  5  6  2  0  0  0  0
  5 11  1  0  0  0  0
  6  7  1  0  0  0  0
  7  8  2  0  0  0  0
  8  9  1  0  0  0  0
  9 10  2  0  0  0  0
  9 11  1  0  0  0  0
  1 12  1  0  0  0  0
 13 14  1  0  0  0  0
 14 15  1  0  0  0  0
 14 16  1  6  0  0  0
 16 17  1  0  0  0  0
 16 18  1  0  0  0  0
 16 19  1  0  0  0  0
  2 15  1  0  0  0  0
  3 13  1  0  0  0  0
 21 20  1  6  0  0  0
 21 22  1  0  0  0  0
 21 26  1  0  0  0  0
 22 23  1  0  0  0  0
 22 31  1  1  0  0  0
 23 24  1  0  0  0  0
 23 30  1  6  0  0  0
 24 25  1  0  0  0  0
 24 29  1  1  0  0  0
 25 26  1  0  0  0  0
 25 27  1  6  0  0  0
 27 28  1  0  0  0  0
  4 20  1  0  0  0  0
  8 32  1  0  0  0  0
 33 34  2  0  0  0  0
 33 38  1  0  0  0  0
 34 35  1  0  0  0  0
 34 40  1  0  0  0  0
 35 36  2  0  0  0  0
 36 37  1  0  0  0  0
 36 39  1  0  0  0  0
 37 38  2  0  0  0  0
  7 33  1  0  0  0  0
M  END
> <score_KierA2>
0.516733

$$$$
suggested molecule #72
 MOE2019            2D

 40 44  0  0  1  0  0  0  0  0999 V2000
    3.4992   -1.2833    0.0000 C   0  0  0  0  0  0  0  0  0  1  0  0
    4.9992   -1.2762    0.0000 C   0  0  0  0  0  0  0  0  0  2  0  0
    5.7430    0.0263    0.0000 C   0  0  0  0  0  0  0  0  0  3  0  0
    4.9869    1.3218    0.0000 C   0  0  0  0  0  0  0  0  0  4  0  0
    3.4870    1.3147    0.0000 C   0  0  0  0  0  0  0  0  0  5  0  0
    2.7431    0.0122    0.0000 C   0  0  0  0  0  0  0  0  0  6  0  0
    1.2431    0.0051    0.0000 C   0  0  0  0  0  0  0  0  0  7  0  0
    0.4870    1.3006    0.0000 C   0  0  0  0  0  0  0  0  0  8  0  0
    1.2309    2.6032    0.0000 C   0  0  0  0  0  0  0  0  0  9  0  0
    0.4748    3.8987    0.0000 O   0  0  0  0  0  0  0  0  0 10  0  0
    2.7309    2.6102    0.0000 O   0  0  0  0  0  0  0  0  0 11  0  0
    2.9041   -2.3253    0.0000 H   0  0  0  0  0  0  0  0  0  0  0  0
    7.2117   -0.2787    0.0000 O   0  0  0  0  0  0  0  0  0  0  0  0
    7.3755   -1.7697    0.0000 C   0  0  1  0  0  0  0  0  0  0  0  0
    6.0081   -2.3862    0.0000 C   0  0  0  0  0  0  0  0  0  0  0  0
    8.6781   -2.5136    0.0000 C   0  0  0  0  0  0  0  0  0  0  0  0
    7.9342   -3.8161    0.0000 C   0  0  0  0  0  0  0  0  0  0  0  0
    9.4220   -1.2110    0.0000 C   0  0  0  0  0  0  0  0  0  0  0  0
    9.9806   -3.2575    0.0000 O   0  0  0  0  0  0  0  0  0  0  0  0
    5.7308    2.6244    0.0000 O   0  0  0  0  0  0  0  0  0  0  0  0
    7.2308    2.6314    0.0000 C   0  0  1  0  0  0  0  0  0  0  0  0
    7.9747    3.9340    0.0000 C   0  0  1  0  0  0  0  0  0  0  0  0
    9.4747    3.9410    0.0000 C   0  0  2  0  0  0  0  0  0  0  0  0
   10.2308    2.6455    0.0000 C   0  0  1  0  0  0  0  0  0  0  0  0
    9.4869    1.3430    0.0000 C   0  0  2  0  0  0  0  0  0  0  0  0
    7.9869    1.3359    0.0000 O   0  0  0  0  0  0  0  0  0  0  0  0
   10.2430    0.0475    0.0000 C   0  0  0  0  0  0  0  0  0  0  0  0
   11.7430    0.0545    0.0000 O   0  0  0  0  0  0  0  0  0  0  0  0
   11.7308    2.6526    0.0000 O   0  0  0  0  0  0  0  0  0  0  0  0
   10.2186    5.2436    0.0000 O   0  0  0  0  0  0  0  0  0  0  0  0
    7.2186    5.2295    0.0000 O   0  0  0  0  0  0  0  0  0  0  0  0
   -0.7130    1.2950    0.0000 H   0  0  0  0  0  0  0  0  0  0  0  0
    0.4992   -1.2974    0.0000 C   0  0  0  0  0  0  0  0  0  0  0  0
   -1.0008   -1.3045    0.0000 C   0  0  0  0  0  0  0  0  0  0  0  0
   -1.7447   -2.6070    0.0000 C   0  0  0  0  0  0  0  0  0  0  0  0
   -0.9886   -3.9025    0.0000 C   0  0  0  0  0  0  0  0  0  0  0  0
    0.5114   -3.8955    0.0000 C   0  0  0  0  0  0  0  0  0  0  0  0
    1.2553   -2.5929    0.0000 C   0  0  0  0  0  0  0  0  0  0  0  0
   -1.7324   -5.2051    0.0000 O   0  0  0  0  0  0  0  0  0  0  0  0
   -1.7569   -0.0090    0.0000 O   0  0  0  0  0  0  0  0  0  0  0  0
  1  2  2  0  0  0  0
  1  6  1  0  0  0  0
  2  3  1  0  0  0  0
  3  4  2  0  0  0  0
  4  5  1  0  0  0  0
  5  6  2  0  0  0  0
  5 11  1  0  0  0  0
  6  7  1  0  0  0  0
  7  8  2  0  0  0  0
  8  9  1  0  0  0  0
  9 10  2  0  0  0  0
  9 11  1  0  0  0  0
  1 12  1  0  0  0  0
 13 14  1  0  0  0  0
 14 15  1  0  0  0  0
 14 16  1  6  0  0  0
 16 17  1  0  0  0  0
 16 18  1  0  0  0  0
 16 19  1  0  0  0  0
  2 15  1  0  0  0  0
  3 13  1  0  0  0  0
 21 20  1  6  0  0  0
 21 22  1  0  0  0  0
 21 26  1  0  0  0  0
 22 23  1  0  0  0  0
 22 31  1  1  0  0  0
 23 24  1  0  0  0  0
 23 30  1  6  0  0  0
 24 25  1  0  0  0  0
 24 29  1  1  0  0  0
 25 26  1  0  0  0  0
 25 27  1  6  0  0  0
 27 28  1  0  0  0  0
  4 20  1  0  0  0  0
  8 32  1  0  0  0  0
 33 34  2  0  0  0  0
 33 38  1  0  0  0  0
 34 35  1  0  0  0  0
 34 40  1  0  0  0  0
 35 36  2  0  0  0  0
 36 37  1  0  0  0  0
 36 39  1  0  0  0  0
 37 38  2  0  0  0  0
  7 33  1  0  0  0  0
M  END
> <score_KierA3>
0.51217

$$$$
suggested molecule #73
 MOE2019            2D

 40 44  0  0  1  0  0  0  0  0999 V2000
    3.4992   -1.2833    0.0000 C   0  0  0  0  0  0  0  0  0  1  0  0
    4.9992   -1.2762    0.0000 C   0  0  0  0  0  0  0  0  0  2  0  0
    5.7430    0.0263    0.0000 C   0  0  0  0  0  0  0  0  0  3  0  0
    4.9869    1.3218    0.0000 C   0  0  0  0  0  0  0  0  0  4  0  0
    3.4870    1.3147    0.0000 C   0  0  0  0  0  0  0  0  0  5  0  0
    2.7431    0.0122    0.0000 C   0  0  0  0  0  0  0  0  0  6  0  0
    1.2431    0.0051    0.0000 C   0  0  0  0  0  0  0  0  0  7  0  0
    0.4870    1.3006    0.0000 C   0  0  0  0  0  0  0  0  0  8  0  0
    1.2309    2.6032    0.0000 C   0  0  0  0  0  0  0  0  0  9  0  0
    0.4748    3.8987    0.0000 O   0  0  0  0  0  0  0  0  0 10  0  0
    2.7309    2.6102    0.0000 O   0  0  0  0  0  0  0  0  0 11  0  0
    2.9041   -2.3253    0.0000 H   0  0  0  0  0  0  0  0  0  0  0  0
    7.2117   -0.2787    0.0000 O   0  0  0  0  0  0  0  0  0  0  0  0
    7.3755   -1.7697    0.0000 C   0  0  1  0  0  0  0  0  0  0  0  0
    6.0081   -2.3862    0.0000 C   0  0  0  0  0  0  0  0  0  0  0  0
    8.6781   -2.5136    0.0000 C   0  0  0  0  0  0  0  0  0  0  0  0
    7.9342   -3.8161    0.0000 C   0  0  0  0  0  0  0  0  0  0  0  0
    9.4220   -1.2110    0.0000 C   0  0  0  0  0  0  0  0  0  0  0  0
    9.9806   -3.2575    0.0000 O   0  0  0  0  0  0  0  0  0  0  0  0
    5.7308    2.6244    0.0000 O   0  0  0  0  0  0  0  0  0  0  0  0
    7.2308    2.6314    0.0000 C   0  0  1  0  0  0  0  0  0  0  0  0
    7.9747    3.9340    0.0000 C   0  0  1  0  0  0  0  0  0  0  0  0
    9.4747    3.9410    0.0000 C   0  0  2  0  0  0  0  0  0  0  0  0
   10.2308    2.6455    0.0000 C   0  0  1  0  0  0  0  0  0  0  0  0
    9.4869    1.3430    0.0000 C   0  0  2  0  0  0  0  0  0  0  0  0
    7.9869    1.3359    0.0000 O   0  0  0  0  0  0  0  0  0  0  0  0
   10.2430    0.0475    0.0000 C   0  0  0  0  0  0  0  0  0  0  0  0
   11.7430    0.0545    0.0000 O   0  0  0  0  0  0  0  0  0  0  0  0
   11.7308    2.6526    0.0000 O   0  0  0  0  0  0  0  0  0  0  0  0
   10.2186    5.2436    0.0000 O   0  0  0  0  0  0  0  0  0  0  0  0
    7.2186    5.2295    0.0000 O   0  0  0  0  0  0  0  0  0  0  0  0
   -0.7130    1.2950    0.0000 H   0  0  0  0  0  0  0  0  0  0  0  0
    0.4992   -1.2974    0.0000 C   0  0  0  0  0  0  0  0  0  0  0  0
   -1.0008   -1.3045    0.0000 C   0  0  0  0  0  0  0  0  0  0  0  0
   -1.7447   -2.6070    0.0000 C   0  0  0  0  0  0  0  0  0  0  0  0
   -0.9886   -3.9025    0.0000 C   0  0  0  0  0  0  0  0  0  0  0  0
    0.5114   -3.8955    0.0000 C   0  0  0  0  0  0  0  0  0  0  0  0
    1.2553   -2.5929    0.0000 C   0  0  0  0  0  0  0  0  0  0  0  0
   -1.7324   -5.2051    0.0000 O   0  0  0  0  0  0  0  0  0  0  0  0
   -1.7569   -0.0090    0.0000 O   0  0  0  0  0  0  0  0  0  0  0  0
  1  2  2  0  0  0  0
  1  6  1  0  0  0  0
  2  3  1  0  0  0  0
  3  4  2  0  0  0  0
  4  5  1  0  0  0  0
  5  6  2  0  0  0  0
  5 11  1  0  0  0  0
  6  7  1  0  0  0  0
  7  8  2  0  0  0  0
  8  9  1  0  0  0  0
  9 10  2  0  0  0  0
  9 11  1  0  0  0  0
  1 12  1  0  0  0  0
 13 14  1  0  0  0  0
 14 15  1  0  0  0  0
 14 16  1  6  0  0  0
 16 17  1  0  0  0  0
 16 18  1  0  0  0  0
 16 19  1  0  0  0  0
  2 15  1  0  0  0  0
  3 13  1  0  0  0  0
 21 20  1  6  0  0  0
 21 22  1  0  0  0  0
 21 26  1  0  0  0  0
 22 23  1  0  0  0  0
 22 31  1  1  0  0  0
 23 24  1  0  0  0  0
 23 30  1  6  0  0  0
 24 25  1  0  0  0  0
 24 29  1  1  0  0  0
 25 26  1  0  0  0  0
 25 27  1  6  0  0  0
 27 28  1  0  0  0  0
  4 20  1  0  0  0  0
  8 32  1  0  0  0  0
 33 34  2  0  0  0  0
 33 38  1  0  0  0  0
 34 35  1  0  0  0  0
 34 40  1  0  0  0  0
 35 36  2  0  0  0  0
 36 37  1  0  0  0  0
 36 39  1  0  0  0  0
 37 38  2  0  0  0  0
  7 33  1  0  0  0  0
M  END
> <score_KierFlex>
0.516372

$$$$
suggested molecule #74
 MOE2019            2D

 51 56  0  0  1  0  0  0  0  0999 V2000
    3.4992   -1.2833    0.0000 C   0  0  0  0  0  0  0  0  0  1  0  0
    4.9992   -1.2762    0.0000 C   0  0  0  0  0  0  0  0  0  2  0  0
    5.7430    0.0263    0.0000 C   0  0  0  0  0  0  0  0  0  3  0  0
    4.9869    1.3218    0.0000 C   0  0  0  0  0  0  0  0  0  4  0  0
    3.4870    1.3147    0.0000 C   0  0  0  0  0  0  0  0  0  5  0  0
    2.7431    0.0122    0.0000 C   0  0  0  0  0  0  0  0  0  6  0  0
    1.2431    0.0051    0.0000 C   0  0  0  0  0  0  0  0  0  7  0  0
    0.4870    1.3006    0.0000 C   0  0  0  0  0  0  0  0  0  8  0  0
    1.2309    2.6032    0.0000 C   0  0  0  0  0  0  0  0  0  9  0  0
    0.4748    3.8987    0.0000 O   0  0  0  0  0  0  0  0  0 10  0  0
    2.7309    2.6102    0.0000 O   0  0  0  0  0  0  0  0  0 11  0  0
    2.9041   -2.3253    0.0000 H   0  0  0  0  0  0  0  0  0  0  0  0
    7.2117   -0.2787    0.0000 O   0  0  0  0  0  0  0  0  0  0  0  0
    7.3755   -1.7697    0.0000 C   0  0  1  0  0  0  0  0  0  0  0  0
    6.0081   -2.3862    0.0000 C   0  0  0  0  0  0  0  0  0  0  0  0
    8.6781   -2.5136    0.0000 C   0  0  0  0  0  0  0  0  0  0  0  0
    9.9806   -3.2575    0.0000 C   0  0  0  0  0  0  0  0  0  0  0  0
    9.4220   -1.2110    0.0000 C   0  0  0  0  0  0  0  0  0  0  0  0
    7.9342   -3.8161    0.0000 O   0  0  0  0  0  0  0  0  0  0  0  0
    5.7308    2.6244    0.0000 O   0  0  0  0  0  0  0  0  0  0  0  0
    7.2308    2.6314    0.0000 C   0  0  1  0  0  0  0  0  0  0  0  0
    7.9747    3.9340    0.0000 C   0  0  1  0  0  0  0  0  0  0  0  0
    9.4747    3.9410    0.0000 C   0  0  2  0  0  0  0  0  0  0  0  0
   10.2308    2.6455    0.0000 C   0  0  1  0  0  0  0  0  0  0  0  0
    9.4869    1.3430    0.0000 C   0  0  2  0  0  0  0  0  0  0  0  0
    7.9869    1.3359    0.0000 O   0  0  0  0  0  0  0  0  0  0  0  0
   10.2430    0.0475    0.0000 C   0  0  0  0  0  0  0  0  0  0  0  0
   11.7430    0.0545    0.0000 O   0  0  0  0  0  0  0  0  0  0  0  0
   11.7308    2.6526    0.0000 O   0  0  0  0  0  0  0  0  0  0  0  0
   10.2186    5.2436    0.0000 O   0  0  0  0  0  0  0  0  0  0  0  0
    7.2186    5.2295    0.0000 O   0  0  0  0  0  0  0  0  0  0  0  0
   -0.7130    1.2950    0.0000 H   0  0  0  0  0  0  0  0  0  0  0  0
   -1.0008   -1.3045    0.0000 C   0  0  0  0  0  0  0  0  0  0  0  0
   -1.7447   -2.6070    0.0000 C   0  0  0  0  0  0  0  0  0  0  0  0
   -0.9886   -3.9025    0.0000 C   0  0  0  0  0  0  0  0  0  0  0  0
    0.5114   -3.8955    0.0000 C   0  0  0  0  0  0  0  0  0  0  0  0
    1.2553   -2.5929    0.0000 C   0  0  0  0  0  0  0  0  0  0  0  0
    0.4992   -1.2974    0.0000 C   0  0  0  0  0  0  0  0  0  0  0  0
    1.2675   -5.1910    0.0000 O   0  0  0  0  0  0  0  0  0  0  0  0
   -1.7324   -5.2051    0.0000 O   0  0  0  0  0  0  0  0  0  0  0  0
   -3.2324   -5.2121    0.0000 C   0  0  1  0  0  0  0  0  0  0  0  0
   -3.9763   -6.5147    0.0000 C   0  0  1  0  0  0  0  0  0  0  0  0
   -5.4763   -6.5217    0.0000 C   0  0  2  0  0  0  0  0  0  0  0  0
   -6.2324   -5.2262    0.0000 C   0  0  1  0  0  0  0  0  0  0  0  0
   -5.4885   -3.9237    0.0000 C   0  0  2  0  0  0  0  0  0  0  0  0
   -3.9885   -3.9166    0.0000 O   0  0  0  0  0  0  0  0  0  0  0  0
   -6.2446   -2.6282    0.0000 C   0  0  0  0  0  0  0  0  0  0  0  0
   -7.7446   -2.6352    0.0000 O   0  0  0  0  0  0  0  0  0  0  0  0
   -7.7324   -5.2333    0.0000 O   0  0  0  0  0  0  0  0  0  0  0  0
   -6.2202   -7.8243    0.0000 O   0  0  0  0  0  0  0  0  0  0  0  0
   -3.2202   -7.8102    0.0000 O   0  0  0  0  0  0  0  0  0  0  0  0
  1  2  2  0  0  0  0
  1  6  1  0  0  0  0
  2  3  1  0  0  0  0
  3  4  2  0  0  0  0
  4  5  1  0  0  0  0
  5  6  2  0  0  0  0
  5 11  1  0  0  0  0
  6  7  1  0  0  0  0
  7  8  2  0  0  0  0
  8  9  1  0  0  0  0
  9 10  2  0  0  0  0
  9 11  1  0  0  0  0
  1 12  1  0  0  0  0
 13 14  1  0  0  0  0
 14 15  1  0  0  0  0
 14 16  1  6  0  0  0
 16 17  1  0  0  0  0
 16 18  1  0  0  0  0
 16 19  1  0  0  0  0
  2 15  1  0  0  0  0
  3 13  1  0  0  0  0
 21 20  1  6  0  0  0
 21 22  1  0  0  0  0
 21 26  1  0  0  0  0
 22 23  1  0  0  0  0
 22 31  1  1  0  0  0
 23 24  1  0  0  0  0
 23 30  1  6  0  0  0
 24 25  1  0  0  0  0
 24 29  1  1  0  0  0
 25 26  1  0  0  0  0
 25 27  1  6  0  0  0
 27 28  1  0  0  0  0
  4 20  1  0  0  0  0
  8 32  1  0  0  0  0
 33 34  1  0  0  0  0
 33 38  2  0  0  0  0
 34 35  2  0  0  0  0
 35 36  1  0  0  0  0
 35 40  1  0  0  0  0
 36 37  2  0  0  0  0
 36 39  1  0  0  0  0
 37 38  1  0  0  0  0
 41 40  1  1  0  0  0
 41 42  1  0  0  0  0
 41 46  1  0  0  0  0
 42 43  1  0  0  0  0
 42 51  1  6  0  0  0
 43 44  1  0  0  0  0
 43 50  1  1  0  0  0
 44 45  1  0  0  0  0
 44 49  1  6  0  0  0
 45 46  1  0  0  0  0
 45 47  1  1  0  0  0
 47 48  1  0  0  0  0
  7 38  1  0  0  0  0
M  END
> <score_Kier3>
0.511539

$$$$
suggested molecule #75
 MOE2019            2D

 51 56  0  0  1  0  0  0  0  0999 V2000
    3.4992   -1.2833    0.0000 C   0  0  0  0  0  0  0  0  0  1  0  0
    4.9992   -1.2762    0.0000 C   0  0  0  0  0  0  0  0  0  2  0  0
    5.7430    0.0263    0.0000 C   0  0  0  0  0  0  0  0  0  3  0  0
    4.9869    1.3218    0.0000 C   0  0  0  0  0  0  0  0  0  4  0  0
    3.4870    1.3147    0.0000 C   0  0  0  0  0  0  0  0  0  5  0  0
    2.7431    0.0122    0.0000 C   0  0  0  0  0  0  0  0  0  6  0  0
    1.2431    0.0051    0.0000 C   0  0  0  0  0  0  0  0  0  7  0  0
    0.4870    1.3006    0.0000 C   0  0  0  0  0  0  0  0  0  8  0  0
    1.2309    2.6032    0.0000 C   0  0  0  0  0  0  0  0  0  9  0  0
    0.4748    3.8987    0.0000 O   0  0  0  0  0  0  0  0  0 10  0  0
    2.7309    2.6102    0.0000 O   0  0  0  0  0  0  0  0  0 11  0  0
    2.9041   -2.3253    0.0000 H   0  0  0  0  0  0  0  0  0  0  0  0
    7.2117   -0.2787    0.0000 O   0  0  0  0  0  0  0  0  0  0  0  0
    7.3755   -1.7697    0.0000 C   0  0  1  0  0  0  0  0  0  0  0  0
    6.0081   -2.3862    0.0000 C   0  0  0  0  0  0  0  0  0  0  0  0
    8.6781   -2.5136    0.0000 C   0  0  0  0  0  0  0  0  0  0  0  0
    9.9806   -3.2575    0.0000 C   0  0  0  0  0  0  0  0  0  0  0  0
    9.4220   -1.2110    0.0000 C   0  0  0  0  0  0  0  0  0  0  0  0
    7.9342   -3.8161    0.0000 O   0  0  0  0  0  0  0  0  0  0  0  0
    5.7308    2.6244    0.0000 O   0  0  0  0  0  0  0  0  0  0  0  0
    7.2308    2.6314    0.0000 C   0  0  1  0  0  0  0  0  0  0  0  0
    7.9747    3.9340    0.0000 C   0  0  1  0  0  0  0  0  0  0  0  0
    9.4747    3.9410    0.0000 C   0  0  2  0  0  0  0  0  0  0  0  0
   10.2308    2.6455    0.0000 C   0  0  1  0  0  0  0  0  0  0  0  0
    9.4869    1.3430    0.0000 C   0  0  2  0  0  0  0  0  0  0  0  0
    7.9869    1.3359    0.0000 O   0  0  0  0  0  0  0  0  0  0  0  0
   10.2430    0.0475    0.0000 C   0  0  0  0  0  0  0  0  0  0  0  0
   11.7430    0.0545    0.0000 O   0  0  0  0  0  0  0  0  0  0  0  0
   11.7308    2.6526    0.0000 O   0  0  0  0  0  0  0  0  0  0  0  0
   10.2186    5.2436    0.0000 O   0  0  0  0  0  0  0  0  0  0  0  0
    7.2186    5.2295    0.0000 O   0  0  0  0  0  0  0  0  0  0  0  0
   -0.7130    1.2950    0.0000 H   0  0  0  0  0  0  0  0  0  0  0  0
   -1.0008   -1.3045    0.0000 C   0  0  0  0  0  0  0  0  0  0  0  0
   -1.7447   -2.6070    0.0000 C   0  0  0  0  0  0  0  0  0  0  0  0
   -0.9886   -3.9025    0.0000 C   0  0  0  0  0  0  0  0  0  0  0  0
    0.5114   -3.8955    0.0000 C   0  0  0  0  0  0  0  0  0  0  0  0
    1.2553   -2.5929    0.0000 C   0  0  0  0  0  0  0  0  0  0  0  0
    0.4992   -1.2974    0.0000 C   0  0  0  0  0  0  0  0  0  0  0  0
    1.2675   -5.1910    0.0000 O   0  0  0  0  0  0  0  0  0  0  0  0
   -1.7324   -5.2051    0.0000 O   0  0  0  0  0  0  0  0  0  0  0  0
   -3.2324   -5.2121    0.0000 C   0  0  1  0  0  0  0  0  0  0  0  0
   -3.9763   -6.5147    0.0000 C   0  0  1  0  0  0  0  0  0  0  0  0
   -5.4763   -6.5217    0.0000 C   0  0  2  0  0  0  0  0  0  0  0  0
   -6.2324   -5.2262    0.0000 C   0  0  1  0  0  0  0  0  0  0  0  0
   -5.4885   -3.9237    0.0000 C   0  0  2  0  0  0  0  0  0  0  0  0
   -3.9885   -3.9166    0.0000 O   0  0  0  0  0  0  0  0  0  0  0  0
   -6.2446   -2.6282    0.0000 C   0  0  0  0  0  0  0  0  0  0  0  0
   -7.7446   -2.6352    0.0000 O   0  0  0  0  0  0  0  0  0  0  0  0
   -7.7324   -5.2333    0.0000 O   0  0  0  0  0  0  0  0  0  0  0  0
   -6.2202   -7.8243    0.0000 O   0  0  0  0  0  0  0  0  0  0  0  0
   -3.2202   -7.8102    0.0000 O   0  0  0  0  0  0  0  0  0  0  0  0
  1  2  2  0  0  0  0
  1  6  1  0  0  0  0
  2  3  1  0  0  0  0
  3  4  2  0  0  0  0
  4  5  1  0  0  0  0
  5  6  2  0  0  0  0
  5 11  1  0  0  0  0
  6  7  1  0  0  0  0
  7  8  2  0  0  0  0
  8  9  1  0  0  0  0
  9 10  2  0  0  0  0
  9 11  1  0  0  0  0
  1 12  1  0  0  0  0
 13 14  1  0  0  0  0
 14 15  1  0  0  0  0
 14 16  1  6  0  0  0
 16 17  1  0  0  0  0
 16 18  1  0  0  0  0
 16 19  1  0  0  0  0
  2 15  1  0  0  0  0
  3 13  1  0  0  0  0
 21 20  1  6  0  0  0
 21 22  1  0  0  0  0
 21 26  1  0  0  0  0
 22 23  1  0  0  0  0
 22 31  1  1  0  0  0
 23 24  1  0  0  0  0
 23 30  1  6  0  0  0
 24 25  1  0  0  0  0
 24 29  1  1  0  0  0
 25 26  1  0  0  0  0
 25 27  1  6  0  0  0
 27 28  1  0  0  0  0
  4 20  1  0  0  0  0
  8 32  1  0  0  0  0
 33 34  1  0  0  0  0
 33 38  2  0  0  0  0
 34 35  2  0  0  0  0
 35 36  1  0  0  0  0
 35 40  1  0  0  0  0
 36 37  2  0  0  0  0
 36 39  1  0  0  0  0
 37 38  1  0  0  0  0
 41 40  1  1  0  0  0
 41 42  1  0  0  0  0
 41 46  1  0  0  0  0
 42 43  1  0  0  0  0
 42 51  1  6  0  0  0
 43 44  1  0  0  0  0
 43 50  1  1  0  0  0
 44 45  1  0  0  0  0
 44 49  1  6  0  0  0
 45 46  1  0  0  0  0
 45 47  1  1  0  0  0
 47 48  1  0  0  0  0
  7 38  1  0  0  0  0
M  END
> <score_KierA1>
0.51759

$$$$
suggested molecule #76
 MOE2019            2D

 51 56  0  0  1  0  0  0  0  0999 V2000
    3.4992   -1.2833    0.0000 C   0  0  0  0  0  0  0  0  0  1  0  0
    4.9992   -1.2762    0.0000 C   0  0  0  0  0  0  0  0  0  2  0  0
    5.7430    0.0263    0.0000 C   0  0  0  0  0  0  0  0  0  3  0  0
    4.9869    1.3218    0.0000 C   0  0  0  0  0  0  0  0  0  4  0  0
    3.4870    1.3147    0.0000 C   0  0  0  0  0  0  0  0  0  5  0  0
    2.7431    0.0122    0.0000 C   0  0  0  0  0  0  0  0  0  6  0  0
    1.2431    0.0051    0.0000 C   0  0  0  0  0  0  0  0  0  7  0  0
    0.4870    1.3006    0.0000 C   0  0  0  0  0  0  0  0  0  8  0  0
    1.2309    2.6032    0.0000 C   0  0  0  0  0  0  0  0  0  9  0  0
    0.4748    3.8987    0.0000 O   0  0  0  0  0  0  0  0  0 10  0  0
    2.7309    2.6102    0.0000 O   0  0  0  0  0  0  0  0  0 11  0  0
    2.9041   -2.3253    0.0000 H   0  0  0  0  0  0  0  0  0  0  0  0
    7.2117   -0.2787    0.0000 O   0  0  0  0  0  0  0  0  0  0  0  0
    7.3755   -1.7697    0.0000 C   0  0  1  0  0  0  0  0  0  0  0  0
    6.0081   -2.3862    0.0000 C   0  0  0  0  0  0  0  0  0  0  0  0
    8.6781   -2.5136    0.0000 C   0  0  0  0  0  0  0  0  0  0  0  0
    9.9806   -3.2575    0.0000 C   0  0  0  0  0  0  0  0  0  0  0  0
    9.4220   -1.2110    0.0000 C   0  0  0  0  0  0  0  0  0  0  0  0
    7.9342   -3.8161    0.0000 O   0  0  0  0  0  0  0  0  0  0  0  0
    5.7308    2.6244    0.0000 O   0  0  0  0  0  0  0  0  0  0  0  0
    7.2308    2.6314    0.0000 C   0  0  1  0  0  0  0  0  0  0  0  0
    7.9747    3.9340    0.0000 C   0  0  1  0  0  0  0  0  0  0  0  0
    9.4747    3.9410    0.0000 C   0  0  2  0  0  0  0  0  0  0  0  0
   10.2308    2.6455    0.0000 C   0  0  1  0  0  0  0  0  0  0  0  0
    9.4869    1.3430    0.0000 C   0  0  2  0  0  0  0  0  0  0  0  0
    7.9869    1.3359    0.0000 O   0  0  0  0  0  0  0  0  0  0  0  0
   10.2430    0.0475    0.0000 C   0  0  0  0  0  0  0  0  0  0  0  0
   11.7430    0.0545    0.0000 O   0  0  0  0  0  0  0  0  0  0  0  0
   11.7308    2.6526    0.0000 O   0  0  0  0  0  0  0  0  0  0  0  0
   10.2186    5.2436    0.0000 O   0  0  0  0  0  0  0  0  0  0  0  0
    7.2186    5.2295    0.0000 O   0  0  0  0  0  0  0  0  0  0  0  0
   -0.7130    1.2950    0.0000 H   0  0  0  0  0  0  0  0  0  0  0  0
   -1.0008   -1.3045    0.0000 C   0  0  0  0  0  0  0  0  0  0  0  0
   -1.7447   -2.6070    0.0000 C   0  0  0  0  0  0  0  0  0  0  0  0
   -0.9886   -3.9025    0.0000 C   0  0  0  0  0  0  0  0  0  0  0  0
    0.5114   -3.8955    0.0000 C   0  0  0  0  0  0  0  0  0  0  0  0
    1.2553   -2.5929    0.0000 C   0  0  0  0  0  0  0  0  0  0  0  0
    0.4992   -1.2974    0.0000 C   0  0  0  0  0  0  0  0  0  0  0  0
    1.2675   -5.1910    0.0000 O   0  0  0  0  0  0  0  0  0  0  0  0
   -1.7324   -5.2051    0.0000 O   0  0  0  0  0  0  0  0  0  0  0  0
   -3.2324   -5.2121    0.0000 C   0  0  1  0  0  0  0  0  0  0  0  0
   -3.9763   -6.5147    0.0000 C   0  0  1  0  0  0  0  0  0  0  0  0
   -5.4763   -6.5217    0.0000 C   0  0  2  0  0  0  0  0  0  0  0  0
   -6.2324   -5.2262    0.0000 C   0  0  1  0  0  0  0  0  0  0  0  0
   -5.4885   -3.9237    0.0000 C   0  0  2  0  0  0  0  0  0  0  0  0
   -3.9885   -3.9166    0.0000 O   0  0  0  0  0  0  0  0  0  0  0  0
   -6.2446   -2.6282    0.0000 C   0  0  0  0  0  0  0  0  0  0  0  0
   -7.7446   -2.6352    0.0000 O   0  0  0  0  0  0  0  0  0  0  0  0
   -7.7324   -5.2333    0.0000 O   0  0  0  0  0  0  0  0  0  0  0  0
   -6.2202   -7.8243    0.0000 O   0  0  0  0  0  0  0  0  0  0  0  0
   -3.2202   -7.8102    0.0000 O   0  0  0  0  0  0  0  0  0  0  0  0
  1  2  2  0  0  0  0
  1  6  1  0  0  0  0
  2  3  1  0  0  0  0
  3  4  2  0  0  0  0
  4  5  1  0  0  0  0
  5  6  2  0  0  0  0
  5 11  1  0  0  0  0
  6  7  1  0  0  0  0
  7  8  2  0  0  0  0
  8  9  1  0  0  0  0
  9 10  2  0  0  0  0
  9 11  1  0  0  0  0
  1 12  1  0  0  0  0
 13 14  1  0  0  0  0
 14 15  1  0  0  0  0
 14 16  1  6  0  0  0
 16 17  1  0  0  0  0
 16 18  1  0  0  0  0
 16 19  1  0  0  0  0
  2 15  1  0  0  0  0
  3 13  1  0  0  0  0
 21 20  1  6  0  0  0
 21 22  1  0  0  0  0
 21 26  1  0  0  0  0
 22 23  1  0  0  0  0
 22 31  1  1  0  0  0
 23 24  1  0  0  0  0
 23 30  1  6  0  0  0
 24 25  1  0  0  0  0
 24 29  1  1  0  0  0
 25 26  1  0  0  0  0
 25 27  1  6  0  0  0
 27 28  1  0  0  0  0
  4 20  1  0  0  0  0
  8 32  1  0  0  0  0
 33 34  1  0  0  0  0
 33 38  2  0  0  0  0
 34 35  2  0  0  0  0
 35 36  1  0  0  0  0
 35 40  1  0  0  0  0
 36 37  2  0  0  0  0
 36 39  1  0  0  0  0
 37 38  1  0  0  0  0
 41 40  1  1  0  0  0
 41 42  1  0  0  0  0
 41 46  1  0  0  0  0
 42 43  1  0  0  0  0
 42 51  1  6  0  0  0
 43 44  1  0  0  0  0
 43 50  1  1  0  0  0
 44 45  1  0  0  0  0
 44 49  1  6  0  0  0
 45 46  1  0  0  0  0
 45 47  1  1  0  0  0
 47 48  1  0  0  0  0
  7 38  1  0  0  0  0
M  END
> <score_KierA3>
0.512147

$$$$
suggested molecule #77
 MOE2019            2D

 51 56  0  0  1  0  0  0  0  0999 V2000
    3.4992   -1.2833    0.0000 C   0  0  0  0  0  0  0  0  0  1  0  0
    4.9992   -1.2762    0.0000 C   0  0  0  0  0  0  0  0  0  2  0  0
    5.7430    0.0263    0.0000 C   0  0  0  0  0  0  0  0  0  3  0  0
    4.9869    1.3218    0.0000 C   0  0  0  0  0  0  0  0  0  4  0  0
    3.4870    1.3147    0.0000 C   0  0  0  0  0  0  0  0  0  5  0  0
    2.7431    0.0122    0.0000 C   0  0  0  0  0  0  0  0  0  6  0  0
    1.2431    0.0051    0.0000 C   0  0  0  0  0  0  0  0  0  7  0  0
    0.4870    1.3006    0.0000 C   0  0  0  0  0  0  0  0  0  8  0  0
    1.2309    2.6032    0.0000 C   0  0  0  0  0  0  0  0  0  9  0  0
    0.4748    3.8987    0.0000 O   0  0  0  0  0  0  0  0  0 10  0  0
    2.7309    2.6102    0.0000 O   0  0  0  0  0  0  0  0  0 11  0  0
    2.9041   -2.3253    0.0000 H   0  0  0  0  0  0  0  0  0  0  0  0
    7.2117   -0.2787    0.0000 O   0  0  0  0  0  0  0  0  0  0  0  0
    7.3755   -1.7697    0.0000 C   0  0  1  0  0  0  0  0  0  0  0  0
    6.0081   -2.3862    0.0000 C   0  0  0  0  0  0  0  0  0  0  0  0
    8.6781   -2.5136    0.0000 C   0  0  0  0  0  0  0  0  0  0  0  0
    9.9806   -3.2575    0.0000 C   0  0  0  0  0  0  0  0  0  0  0  0
    9.4220   -1.2110    0.0000 C   0  0  0  0  0  0  0  0  0  0  0  0
    7.9342   -3.8161    0.0000 O   0  0  0  0  0  0  0  0  0  0  0  0
    5.7308    2.6244    0.0000 O   0  0  0  0  0  0  0  0  0  0  0  0
    7.2308    2.6314    0.0000 C   0  0  1  0  0  0  0  0  0  0  0  0
    7.9747    3.9340    0.0000 C   0  0  1  0  0  0  0  0  0  0  0  0
    9.4747    3.9410    0.0000 C   0  0  2  0  0  0  0  0  0  0  0  0
   10.2308    2.6455    0.0000 C   0  0  1  0  0  0  0  0  0  0  0  0
    9.4869    1.3430    0.0000 C   0  0  2  0  0  0  0  0  0  0  0  0
    7.9869    1.3359    0.0000 O   0  0  0  0  0  0  0  0  0  0  0  0
   10.2430    0.0475    0.0000 C   0  0  0  0  0  0  0  0  0  0  0  0
   11.7430    0.0545    0.0000 O   0  0  0  0  0  0  0  0  0  0  0  0
   11.7308    2.6526    0.0000 O   0  0  0  0  0  0  0  0  0  0  0  0
   10.2186    5.2436    0.0000 O   0  0  0  0  0  0  0  0  0  0  0  0
    7.2186    5.2295    0.0000 O   0  0  0  0  0  0  0  0  0  0  0  0
   -0.7130    1.2950    0.0000 H   0  0  0  0  0  0  0  0  0  0  0  0
   -1.0008   -1.3045    0.0000 C   0  0  0  0  0  0  0  0  0  0  0  0
   -1.7447   -2.6070    0.0000 C   0  0  0  0  0  0  0  0  0  0  0  0
   -0.9886   -3.9025    0.0000 C   0  0  0  0  0  0  0  0  0  0  0  0
    0.5114   -3.8955    0.0000 C   0  0  0  0  0  0  0  0  0  0  0  0
    1.2553   -2.5929    0.0000 C   0  0  0  0  0  0  0  0  0  0  0  0
    0.4992   -1.2974    0.0000 C   0  0  0  0  0  0  0  0  0  0  0  0
    1.2675   -5.1910    0.0000 O   0  0  0  0  0  0  0  0  0  0  0  0
   -1.7324   -5.2051    0.0000 O   0  0  0  0  0  0  0  0  0  0  0  0
   -3.2324   -5.2121    0.0000 C   0  0  1  0  0  0  0  0  0  0  0  0
   -3.9763   -6.5147    0.0000 C   0  0  1  0  0  0  0  0  0  0  0  0
   -5.4763   -6.5217    0.0000 C   0  0  2  0  0  0  0  0  0  0  0  0
   -6.2324   -5.2262    0.0000 C   0  0  1  0  0  0  0  0  0  0  0  0
   -5.4885   -3.9237    0.0000 C   0  0  2  0  0  0  0  0  0  0  0  0
   -3.9885   -3.9166    0.0000 O   0  0  0  0  0  0  0  0  0  0  0  0
   -6.2446   -2.6282    0.0000 C   0  0  0  0  0  0  0  0  0  0  0  0
   -7.7446   -2.6352    0.0000 O   0  0  0  0  0  0  0  0  0  0  0  0
   -7.7324   -5.2333    0.0000 O   0  0  0  0  0  0  0  0  0  0  0  0
   -6.2202   -7.8243    0.0000 O   0  0  0  0  0  0  0  0  0  0  0  0
   -3.2202   -7.8102    0.0000 O   0  0  0  0  0  0  0  0  0  0  0  0
  1  2  2  0  0  0  0
  1  6  1  0  0  0  0
  2  3  1  0  0  0  0
  3  4  2  0  0  0  0
  4  5  1  0  0  0  0
  5  6  2  0  0  0  0
  5 11  1  0  0  0  0
  6  7  1  0  0  0  0
  7  8  2  0  0  0  0
  8  9  1  0  0  0  0
  9 10  2  0  0  0  0
  9 11  1  0  0  0  0
  1 12  1  0  0  0  0
 13 14  1  0  0  0  0
 14 15  1  0  0  0  0
 14 16  1  6  0  0  0
 16 17  1  0  0  0  0
 16 18  1  0  0  0  0
 16 19  1  0  0  0  0
  2 15  1  0  0  0  0
  3 13  1  0  0  0  0
 21 20  1  6  0  0  0
 21 22  1  0  0  0  0
 21 26  1  0  0  0  0
 22 23  1  0  0  0  0
 22 31  1  1  0  0  0
 23 24  1  0  0  0  0
 23 30  1  6  0  0  0
 24 25  1  0  0  0  0
 24 29  1  1  0  0  0
 25 26  1  0  0  0  0
 25 27  1  6  0  0  0
 27 28  1  0  0  0  0
  4 20  1  0  0  0  0
  8 32  1  0  0  0  0
 33 34  1  0  0  0  0
 33 38  2  0  0  0  0
 34 35  2  0  0  0  0
 35 36  1  0  0  0  0
 35 40  1  0  0  0  0
 36 37  2  0  0  0  0
 36 39  1  0  0  0  0
 37 38  1  0  0  0  0
 41 40  1  1  0  0  0
 41 42  1  0  0  0  0
 41 46  1  0  0  0  0
 42 43  1  0  0  0  0
 42 51  1  6  0  0  0
 43 44  1  0  0  0  0
 43 50  1  1  0  0  0
 44 45  1  0  0  0  0
 44 49  1  6  0  0  0
 45 46  1  0  0  0  0
 45 47  1  1  0  0  0
 47 48  1  0  0  0  0
  7 38  1  0  0  0  0
M  END
> <score_KierFlex>
0.516339

$$$$
suggested molecule #78
 MOE2019            2D

 39 43  0  0  1  0  0  0  0  0999 V2000
    3.4992   -1.2833    0.0000 C   0  0  0  0  0  0  0  0  0  1  0  0
    4.9992   -1.2762    0.0000 C   0  0  0  0  0  0  0  0  0  2  0  0
    5.7430    0.0263    0.0000 C   0  0  0  0  0  0  0  0  0  3  0  0
    4.9869    1.3218    0.0000 C   0  0  0  0  0  0  0  0  0  4  0  0
    3.4870    1.3147    0.0000 C   0  0  0  0  0  0  0  0  0  5  0  0
    2.7431    0.0122    0.0000 C   0  0  0  0  0  0  0  0  0  6  0  0
    1.2431    0.0051    0.0000 C   0  0  0  0  0  0  0  0  0  7  0  0
    0.4870    1.3006    0.0000 C   0  0  0  0  0  0  0  0  0  8  0  0
    1.2309    2.6032    0.0000 C   0  0  0  0  0  0  0  0  0  9  0  0
    0.4748    3.8987    0.0000 O   0  0  0  0  0  0  0  0  0 10  0  0
    2.7309    2.6102    0.0000 O   0  0  0  0  0  0  0  0  0 11  0  0
    2.9041   -2.3253    0.0000 H   0  0  0  0  0  0  0  0  0  0  0  0
    7.2117   -0.2787    0.0000 O   0  0  0  0  0  0  0  0  0  0  0  0
    7.3755   -1.7697    0.0000 C   0  0  1  0  0  0  0  0  0  0  0  0
    6.0081   -2.3862    0.0000 C   0  0  0  0  0  0  0  0  0  0  0  0
    8.6781   -2.5136    0.0000 C   0  0  0  0  0  0  0  0  0  0  0  0
    7.9342   -3.8161    0.0000 C   0  0  0  0  0  0  0  0  0  0  0  0
    9.9806   -3.2575    0.0000 C   0  0  0  0  0  0  0  0  0  0  0  0
    9.4220   -1.2110    0.0000 O   0  0  0  0  0  0  0  0  0  0  0  0
    5.7308    2.6244    0.0000 O   0  0  0  0  0  0  0  0  0  0  0  0
    7.2308    2.6314    0.0000 C   0  0  1  0  0  0  0  0  0  0  0  0
    7.9747    3.9340    0.0000 C   0  0  1  0  0  0  0  0  0  0  0  0
    9.4747    3.9410    0.0000 C   0  0  2  0  0  0  0  0  0  0  0  0
   10.2308    2.6455    0.0000 C   0  0  1  0  0  0  0  0  0  0  0  0
    9.4869    1.3430    0.0000 C   0  0  2  0  0  0  0  0  0  0  0  0
    7.9869    1.3359    0.0000 O   0  0  0  0  0  0  0  0  0  0  0  0
   10.2430    0.0475    0.0000 C   0  0  0  0  0  0  0  0  0  0  0  0
   11.7430    0.0545    0.0000 O   0  0  0  0  0  0  0  0  0  0  0  0
   11.7308    2.6526    0.0000 O   0  0  0  0  0  0  0  0  0  0  0  0
   10.2186    5.2436    0.0000 O   0  0  0  0  0  0  0  0  0  0  0  0
    7.2186    5.2295    0.0000 O   0  0  0  0  0  0  0  0  0  0  0  0
   -0.7130    1.2950    0.0000 H   0  0  0  0  0  0  0  0  0  0  0  0
    0.5114   -3.8955    0.0000 C   0  0  0  0  0  0  0  0  0  0  0  0
   -0.9886   -3.9025    0.0000 C   0  0  0  0  0  0  0  0  0  0  0  0
   -1.7447   -2.6070    0.0000 C   0  0  0  0  0  0  0  0  0  0  0  0
   -1.0008   -1.3045    0.0000 C   0  0  0  0  0  0  0  0  0  0  0  0
    0.4992   -1.2974    0.0000 C   0  0  0  0  0  0  0  0  0  0  0  0
    1.2553   -2.5929    0.0000 C   0  0  0  0  0  0  0  0  0  0  0  0
   -1.7569   -0.0090    0.0000 O   0  0  0  0  0  0  0  0  0  0  0  0
  1  2  2  0  0  0  0
  1  6  1  0  0  0  0
  2  3  1  0  0  0  0
  3  4  2  0  0  0  0
  4  5  1  0  0  0  0
  5  6  2  0  0  0  0
  5 11  1  0  0  0  0
  6  7  1  0  0  0  0
  7  8  2  0  0  0  0
  8  9  1  0  0  0  0
  9 10  2  0  0  0  0
  9 11  1  0  0  0  0
  1 12  1  0  0  0  0
 13 14  1  0  0  0  0
 14 15  1  0  0  0  0
 14 16  1  6  0  0  0
 16 17  1  0  0  0  0
 16 18  1  0  0  0  0
 16 19  1  0  0  0  0
  2 15  1  0  0  0  0
  3 13  1  0  0  0  0
 21 20  1  6  0  0  0
 21 22  1  0  0  0  0
 21 26  1  0  0  0  0
 22 23  1  0  0  0  0
 22 31  1  1  0  0  0
 23 24  1  0  0  0  0
 23 30  1  6  0  0  0
 24 25  1  0  0  0  0
 24 29  1  1  0  0  0
 25 26  1  0  0  0  0
 25 27  1  6  0  0  0
 27 28  1  0  0  0  0
  4 20  1  0  0  0  0
  8 32  1  0  0  0  0
 33 34  2  0  0  0  0
 33 38  1  0  0  0  0
 34 35  1  0  0  0  0
 35 36  2  0  0  0  0
 36 37  1  0  0  0  0
 36 39  1  0  0  0  0
 37 38  2  0  0  0  0
  7 37  1  0  0  0  0
M  END
> <score_Kier1>
0.517738

$$$$
suggested molecule #79
 MOE2019            2D

 39 43  0  0  1  0  0  0  0  0999 V2000
    3.4992   -1.2833    0.0000 C   0  0  0  0  0  0  0  0  0  1  0  0
    4.9992   -1.2762    0.0000 C   0  0  0  0  0  0  0  0  0  2  0  0
    5.7430    0.0263    0.0000 C   0  0  0  0  0  0  0  0  0  3  0  0
    4.9869    1.3218    0.0000 C   0  0  0  0  0  0  0  0  0  4  0  0
    3.4870    1.3147    0.0000 C   0  0  0  0  0  0  0  0  0  5  0  0
    2.7431    0.0122    0.0000 C   0  0  0  0  0  0  0  0  0  6  0  0
    1.2431    0.0051    0.0000 C   0  0  0  0  0  0  0  0  0  7  0  0
    0.4870    1.3006    0.0000 C   0  0  0  0  0  0  0  0  0  8  0  0
    1.2309    2.6032    0.0000 C   0  0  0  0  0  0  0  0  0  9  0  0
    0.4748    3.8987    0.0000 O   0  0  0  0  0  0  0  0  0 10  0  0
    2.7309    2.6102    0.0000 O   0  0  0  0  0  0  0  0  0 11  0  0
    2.9041   -2.3253    0.0000 H   0  0  0  0  0  0  0  0  0  0  0  0
    7.2117   -0.2787    0.0000 O   0  0  0  0  0  0  0  0  0  0  0  0
    7.3755   -1.7697    0.0000 C   0  0  1  0  0  0  0  0  0  0  0  0
    6.0081   -2.3862    0.0000 C   0  0  0  0  0  0  0  0  0  0  0  0
    8.6781   -2.5136    0.0000 C   0  0  0  0  0  0  0  0  0  0  0  0
    7.9342   -3.8161    0.0000 C   0  0  0  0  0  0  0  0  0  0  0  0
    9.9806   -3.2575    0.0000 C   0  0  0  0  0  0  0  0  0  0  0  0
    9.4220   -1.2110    0.0000 O   0  0  0  0  0  0  0  0  0  0  0  0
    5.7308    2.6244    0.0000 O   0  0  0  0  0  0  0  0  0  0  0  0
    7.2308    2.6314    0.0000 C   0  0  1  0  0  0  0  0  0  0  0  0
    7.9747    3.9340    0.0000 C   0  0  1  0  0  0  0  0  0  0  0  0
    9.4747    3.9410    0.0000 C   0  0  2  0  0  0  0  0  0  0  0  0
   10.2308    2.6455    0.0000 C   0  0  1  0  0  0  0  0  0  0  0  0
    9.4869    1.3430    0.0000 C   0  0  2  0  0  0  0  0  0  0  0  0
    7.9869    1.3359    0.0000 O   0  0  0  0  0  0  0  0  0  0  0  0
   10.2430    0.0475    0.0000 C   0  0  0  0  0  0  0  0  0  0  0  0
   11.7430    0.0545    0.0000 O   0  0  0  0  0  0  0  0  0  0  0  0
   11.7308    2.6526    0.0000 O   0  0  0  0  0  0  0  0  0  0  0  0
   10.2186    5.2436    0.0000 O   0  0  0  0  0  0  0  0  0  0  0  0
    7.2186    5.2295    0.0000 O   0  0  0  0  0  0  0  0  0  0  0  0
   -0.7130    1.2950    0.0000 H   0  0  0  0  0  0  0  0  0  0  0  0
    0.5114   -3.8955    0.0000 C   0  0  0  0  0  0  0  0  0  0  0  0
   -0.9886   -3.9025    0.0000 C   0  0  0  0  0  0  0  0  0  0  0  0
   -1.7447   -2.6070    0.0000 C   0  0  0  0  0  0  0  0  0  0  0  0
   -1.0008   -1.3045    0.0000 C   0  0  0  0  0  0  0  0  0  0  0  0
    0.4992   -1.2974    0.0000 C   0  0  0  0  0  0  0  0  0  0  0  0
    1.2553   -2.5929    0.0000 C   0  0  0  0  0  0  0  0  0  0  0  0
   -1.7569   -0.0090    0.0000 O   0  0  0  0  0  0  0  0  0  0  0  0
  1  2  2  0  0  0  0
  1  6  1  0  0  0  0
  2  3  1  0  0  0  0
  3  4  2  0  0  0  0
  4  5  1  0  0  0  0
  5  6  2  0  0  0  0
  5 11  1  0  0  0  0
  6  7  1  0  0  0  0
  7  8  2  0  0  0  0
  8  9  1  0  0  0  0
  9 10  2  0  0  0  0
  9 11  1  0  0  0  0
  1 12  1  0  0  0  0
 13 14  1  0  0  0  0
 14 15  1  0  0  0  0
 14 16  1  6  0  0  0
 16 17  1  0  0  0  0
 16 18  1  0  0  0  0
 16 19  1  0  0  0  0
  2 15  1  0  0  0  0
  3 13  1  0  0  0  0
 21 20  1  6  0  0  0
 21 22  1  0  0  0  0
 21 26  1  0  0  0  0
 22 23  1  0  0  0  0
 22 31  1  1  0  0  0
 23 24  1  0  0  0  0
 23 30  1  6  0  0  0
 24 25  1  0  0  0  0
 24 29  1  1  0  0  0
 25 26  1  0  0  0  0
 25 27  1  6  0  0  0
 27 28  1  0  0  0  0
  4 20  1  0  0  0  0
  8 32  1  0  0  0  0
 33 34  2  0  0  0  0
 33 38  1  0  0  0  0
 34 35  1  0  0  0  0
 35 36  2  0  0  0  0
 36 37  1  0  0  0  0
 36 39  1  0  0  0  0
 37 38  2  0  0  0  0
  7 37  1  0  0  0  0
M  END
> <score_Kier2>
0.516491

$$$$
suggested molecule #80
 MOE2019            2D

 39 43  0  0  1  0  0  0  0  0999 V2000
    3.4992   -1.2833    0.0000 C   0  0  0  0  0  0  0  0  0  1  0  0
    4.9992   -1.2762    0.0000 C   0  0  0  0  0  0  0  0  0  2  0  0
    5.7430    0.0263    0.0000 C   0  0  0  0  0  0  0  0  0  3  0  0
    4.9869    1.3218    0.0000 C   0  0  0  0  0  0  0  0  0  4  0  0
    3.4870    1.3147    0.0000 C   0  0  0  0  0  0  0  0  0  5  0  0
    2.7431    0.0122    0.0000 C   0  0  0  0  0  0  0  0  0  6  0  0
    1.2431    0.0051    0.0000 C   0  0  0  0  0  0  0  0  0  7  0  0
    0.4870    1.3006    0.0000 C   0  0  0  0  0  0  0  0  0  8  0  0
    1.2309    2.6032    0.0000 C   0  0  0  0  0  0  0  0  0  9  0  0
    0.4748    3.8987    0.0000 O   0  0  0  0  0  0  0  0  0 10  0  0
    2.7309    2.6102    0.0000 O   0  0  0  0  0  0  0  0  0 11  0  0
    2.9041   -2.3253    0.0000 H   0  0  0  0  0  0  0  0  0  0  0  0
    7.2117   -0.2787    0.0000 O   0  0  0  0  0  0  0  0  0  0  0  0
    7.3755   -1.7697    0.0000 C   0  0  1  0  0  0  0  0  0  0  0  0
    6.0081   -2.3862    0.0000 C   0  0  0  0  0  0  0  0  0  0  0  0
    8.6781   -2.5136    0.0000 C   0  0  0  0  0  0  0  0  0  0  0  0
    7.9342   -3.8161    0.0000 C   0  0  0  0  0  0  0  0  0  0  0  0
    9.9806   -3.2575    0.0000 C   0  0  0  0  0  0  0  0  0  0  0  0
    9.4220   -1.2110    0.0000 O   0  0  0  0  0  0  0  0  0  0  0  0
    5.7308    2.6244    0.0000 O   0  0  0  0  0  0  0  0  0  0  0  0
    7.2308    2.6314    0.0000 C   0  0  1  0  0  0  0  0  0  0  0  0
    7.9747    3.9340    0.0000 C   0  0  1  0  0  0  0  0  0  0  0  0
    9.4747    3.9410    0.0000 C   0  0  2  0  0  0  0  0  0  0  0  0
   10.2308    2.6455    0.0000 C   0  0  1  0  0  0  0  0  0  0  0  0
    9.4869    1.3430    0.0000 C   0  0  2  0  0  0  0  0  0  0  0  0
    7.9869    1.3359    0.0000 O   0  0  0  0  0  0  0  0  0  0  0  0
   10.2430    0.0475    0.0000 C   0  0  0  0  0  0  0  0  0  0  0  0
   11.7430    0.0545    0.0000 O   0  0  0  0  0  0  0  0  0  0  0  0
   11.7308    2.6526    0.0000 O   0  0  0  0  0  0  0  0  0  0  0  0
   10.2186    5.2436    0.0000 O   0  0  0  0  0  0  0  0  0  0  0  0
    7.2186    5.2295    0.0000 O   0  0  0  0  0  0  0  0  0  0  0  0
   -0.7130    1.2950    0.0000 H   0  0  0  0  0  0  0  0  0  0  0  0
    0.5114   -3.8955    0.0000 C   0  0  0  0  0  0  0  0  0  0  0  0
   -0.9886   -3.9025    0.0000 C   0  0  0  0  0  0  0  0  0  0  0  0
   -1.7447   -2.6070    0.0000 C   0  0  0  0  0  0  0  0  0  0  0  0
   -1.0008   -1.3045    0.0000 C   0  0  0  0  0  0  0  0  0  0  0  0
    0.4992   -1.2974    0.0000 C   0  0  0  0  0  0  0  0  0  0  0  0
    1.2553   -2.5929    0.0000 C   0  0  0  0  0  0  0  0  0  0  0  0
   -1.7569   -0.0090    0.0000 O   0  0  0  0  0  0  0  0  0  0  0  0
  1  2  2  0  0  0  0
  1  6  1  0  0  0  0
  2  3  1  0  0  0  0
  3  4  2  0  0  0  0
  4  5  1  0  0  0  0
  5  6  2  0  0  0  0
  5 11  1  0  0  0  0
  6  7  1  0  0  0  0
  7  8  2  0  0  0  0
  8  9  1  0  0  0  0
  9 10  2  0  0  0  0
  9 11  1  0  0  0  0
  1 12  1  0  0  0  0
 13 14  1  0  0  0  0
 14 15  1  0  0  0  0
 14 16  1  6  0  0  0
 16 17  1  0  0  0  0
 16 18  1  0  0  0  0
 16 19  1  0  0  0  0
  2 15  1  0  0  0  0
  3 13  1  0  0  0  0
 21 20  1  6  0  0  0
 21 22  1  0  0  0  0
 21 26  1  0  0  0  0
 22 23  1  0  0  0  0
 22 31  1  1  0  0  0
 23 24  1  0  0  0  0
 23 30  1  6  0  0  0
 24 25  1  0  0  0  0
 24 29  1  1  0  0  0
 25 26  1  0  0  0  0
 25 27  1  6  0  0  0
 27 28  1  0  0  0  0
  4 20  1  0  0  0  0
  8 32  1  0  0  0  0
 33 34  2  0  0  0  0
 33 38  1  0  0  0  0
 34 35  1  0  0  0  0
 35 36  2  0  0  0  0
 36 37  1  0  0  0  0
 36 39  1  0  0  0  0
 37 38  2  0  0  0  0
  7 37  1  0  0  0  0
M  END
> <score_Kier3>
0.511598

$$$$
suggested molecule #81
 MOE2019            2D

 39 43  0  0  1  0  0  0  0  0999 V2000
    3.4992   -1.2833    0.0000 C   0  0  0  0  0  0  0  0  0  1  0  0
    4.9992   -1.2762    0.0000 C   0  0  0  0  0  0  0  0  0  2  0  0
    5.7430    0.0263    0.0000 C   0  0  0  0  0  0  0  0  0  3  0  0
    4.9869    1.3218    0.0000 C   0  0  0  0  0  0  0  0  0  4  0  0
    3.4870    1.3147    0.0000 C   0  0  0  0  0  0  0  0  0  5  0  0
    2.7431    0.0122    0.0000 C   0  0  0  0  0  0  0  0  0  6  0  0
    1.2431    0.0051    0.0000 C   0  0  0  0  0  0  0  0  0  7  0  0
    0.4870    1.3006    0.0000 C   0  0  0  0  0  0  0  0  0  8  0  0
    1.2309    2.6032    0.0000 C   0  0  0  0  0  0  0  0  0  9  0  0
    0.4748    3.8987    0.0000 O   0  0  0  0  0  0  0  0  0 10  0  0
    2.7309    2.6102    0.0000 O   0  0  0  0  0  0  0  0  0 11  0  0
    2.9041   -2.3253    0.0000 H   0  0  0  0  0  0  0  0  0  0  0  0
    7.2117   -0.2787    0.0000 O   0  0  0  0  0  0  0  0  0  0  0  0
    7.3755   -1.7697    0.0000 C   0  0  1  0  0  0  0  0  0  0  0  0
    6.0081   -2.3862    0.0000 C   0  0  0  0  0  0  0  0  0  0  0  0
    8.6781   -2.5136    0.0000 C   0  0  0  0  0  0  0  0  0  0  0  0
    7.9342   -3.8161    0.0000 C   0  0  0  0  0  0  0  0  0  0  0  0
    9.9806   -3.2575    0.0000 C   0  0  0  0  0  0  0  0  0  0  0  0
    9.4220   -1.2110    0.0000 O   0  0  0  0  0  0  0  0  0  0  0  0
    5.7308    2.6244    0.0000 O   0  0  0  0  0  0  0  0  0  0  0  0
    7.2308    2.6314    0.0000 C   0  0  1  0  0  0  0  0  0  0  0  0
    7.9747    3.9340    0.0000 C   0  0  1  0  0  0  0  0  0  0  0  0
    9.4747    3.9410    0.0000 C   0  0  2  0  0  0  0  0  0  0  0  0
   10.2308    2.6455    0.0000 C   0  0  1  0  0  0  0  0  0  0  0  0
    9.4869    1.3430    0.0000 C   0  0  2  0  0  0  0  0  0  0  0  0
    7.9869    1.3359    0.0000 O   0  0  0  0  0  0  0  0  0  0  0  0
   10.2430    0.0475    0.0000 C   0  0  0  0  0  0  0  0  0  0  0  0
   11.7430    0.0545    0.0000 O   0  0  0  0  0  0  0  0  0  0  0  0
   11.7308    2.6526    0.0000 O   0  0  0  0  0  0  0  0  0  0  0  0
   10.2186    5.2436    0.0000 O   0  0  0  0  0  0  0  0  0  0  0  0
    7.2186    5.2295    0.0000 O   0  0  0  0  0  0  0  0  0  0  0  0
   -0.7130    1.2950    0.0000 H   0  0  0  0  0  0  0  0  0  0  0  0
    0.5114   -3.8955    0.0000 C   0  0  0  0  0  0  0  0  0  0  0  0
   -0.9886   -3.9025    0.0000 C   0  0  0  0  0  0  0  0  0  0  0  0
   -1.7447   -2.6070    0.0000 C   0  0  0  0  0  0  0  0  0  0  0  0
   -1.0008   -1.3045    0.0000 C   0  0  0  0  0  0  0  0  0  0  0  0
    0.4992   -1.2974    0.0000 C   0  0  0  0  0  0  0  0  0  0  0  0
    1.2553   -2.5929    0.0000 C   0  0  0  0  0  0  0  0  0  0  0  0
   -1.7569   -0.0090    0.0000 O   0  0  0  0  0  0  0  0  0  0  0  0
  1  2  2  0  0  0  0
  1  6  1  0  0  0  0
  2  3  1  0  0  0  0
  3  4  2  0  0  0  0
  4  5  1  0  0  0  0
  5  6  2  0  0  0  0
  5 11  1  0  0  0  0
  6  7  1  0  0  0  0
  7  8  2  0  0  0  0
  8  9  1  0  0  0  0
  9 10  2  0  0  0  0
  9 11  1  0  0  0  0
  1 12  1  0  0  0  0
 13 14  1  0  0  0  0
 14 15  1  0  0  0  0
 14 16  1  6  0  0  0
 16 17  1  0  0  0  0
 16 18  1  0  0  0  0
 16 19  1  0  0  0  0
  2 15  1  0  0  0  0
  3 13  1  0  0  0  0
 21 20  1  6  0  0  0
 21 22  1  0  0  0  0
 21 26  1  0  0  0  0
 22 23  1  0  0  0  0
 22 31  1  1  0  0  0
 23 24  1  0  0  0  0
 23 30  1  6  0  0  0
 24 25  1  0  0  0  0
 24 29  1  1  0  0  0
 25 26  1  0  0  0  0
 25 27  1  6  0  0  0
 27 28  1  0  0  0  0
  4 20  1  0  0  0  0
  8 32  1  0  0  0  0
 33 34  2  0  0  0  0
 33 38  1  0  0  0  0
 34 35  1  0  0  0  0
 35 36  2  0  0  0  0
 36 37  1  0  0  0  0
 36 39  1  0  0  0  0
 37 38  2  0  0  0  0
  7 37  1  0  0  0  0
M  END
> <score_KierA1>
0.517677

$$$$
suggested molecule #82
 MOE2019            2D

 39 43  0  0  1  0  0  0  0  0999 V2000
    3.4992   -1.2833    0.0000 C   0  0  0  0  0  0  0  0  0  1  0  0
    4.9992   -1.2762    0.0000 C   0  0  0  0  0  0  0  0  0  2  0  0
    5.7430    0.0263    0.0000 C   0  0  0  0  0  0  0  0  0  3  0  0
    4.9869    1.3218    0.0000 C   0  0  0  0  0  0  0  0  0  4  0  0
    3.4870    1.3147    0.0000 C   0  0  0  0  0  0  0  0  0  5  0  0
    2.7431    0.0122    0.0000 C   0  0  0  0  0  0  0  0  0  6  0  0
    1.2431    0.0051    0.0000 C   0  0  0  0  0  0  0  0  0  7  0  0
    0.4870    1.3006    0.0000 C   0  0  0  0  0  0  0  0  0  8  0  0
    1.2309    2.6032    0.0000 C   0  0  0  0  0  0  0  0  0  9  0  0
    0.4748    3.8987    0.0000 O   0  0  0  0  0  0  0  0  0 10  0  0
    2.7309    2.6102    0.0000 O   0  0  0  0  0  0  0  0  0 11  0  0
    2.9041   -2.3253    0.0000 H   0  0  0  0  0  0  0  0  0  0  0  0
    7.2117   -0.2787    0.0000 O   0  0  0  0  0  0  0  0  0  0  0  0
    7.3755   -1.7697    0.0000 C   0  0  1  0  0  0  0  0  0  0  0  0
    6.0081   -2.3862    0.0000 C   0  0  0  0  0  0  0  0  0  0  0  0
    8.6781   -2.5136    0.0000 C   0  0  0  0  0  0  0  0  0  0  0  0
    7.9342   -3.8161    0.0000 C   0  0  0  0  0  0  0  0  0  0  0  0
    9.9806   -3.2575    0.0000 C   0  0  0  0  0  0  0  0  0  0  0  0
    9.4220   -1.2110    0.0000 O   0  0  0  0  0  0  0  0  0  0  0  0
    5.7308    2.6244    0.0000 O   0  0  0  0  0  0  0  0  0  0  0  0
    7.2308    2.6314    0.0000 C   0  0  1  0  0  0  0  0  0  0  0  0
    7.9747    3.9340    0.0000 C   0  0  1  0  0  0  0  0  0  0  0  0
    9.4747    3.9410    0.0000 C   0  0  2  0  0  0  0  0  0  0  0  0
   10.2308    2.6455    0.0000 C   0  0  1  0  0  0  0  0  0  0  0  0
    9.4869    1.3430    0.0000 C   0  0  2  0  0  0  0  0  0  0  0  0
    7.9869    1.3359    0.0000 O   0  0  0  0  0  0  0  0  0  0  0  0
   10.2430    0.0475    0.0000 C   0  0  0  0  0  0  0  0  0  0  0  0
   11.7430    0.0545    0.0000 O   0  0  0  0  0  0  0  0  0  0  0  0
   11.7308    2.6526    0.0000 O   0  0  0  0  0  0  0  0  0  0  0  0
   10.2186    5.2436    0.0000 O   0  0  0  0  0  0  0  0  0  0  0  0
    7.2186    5.2295    0.0000 O   0  0  0  0  0  0  0  0  0  0  0  0
   -0.7130    1.2950    0.0000 H   0  0  0  0  0  0  0  0  0  0  0  0
    0.5114   -3.8955    0.0000 C   0  0  0  0  0  0  0  0  0  0  0  0
   -0.9886   -3.9025    0.0000 C   0  0  0  0  0  0  0  0  0  0  0  0
   -1.7447   -2.6070    0.0000 C   0  0  0  0  0  0  0  0  0  0  0  0
   -1.0008   -1.3045    0.0000 C   0  0  0  0  0  0  0  0  0  0  0  0
    0.4992   -1.2974    0.0000 C   0  0  0  0  0  0  0  0  0  0  0  0
    1.2553   -2.5929    0.0000 C   0  0  0  0  0  0  0  0  0  0  0  0
   -1.7569   -0.0090    0.0000 O   0  0  0  0  0  0  0  0  0  0  0  0
  1  2  2  0  0  0  0
  1  6  1  0  0  0  0
  2  3  1  0  0  0  0
  3  4  2  0  0  0  0
  4  5  1  0  0  0  0
  5  6  2  0  0  0  0
  5 11  1  0  0  0  0
  6  7  1  0  0  0  0
  7  8  2  0  0  0  0
  8  9  1  0  0  0  0
  9 10  2  0  0  0  0
  9 11  1  0  0  0  0
  1 12  1  0  0  0  0
 13 14  1  0  0  0  0
 14 15  1  0  0  0  0
 14 16  1  6  0  0  0
 16 17  1  0  0  0  0
 16 18  1  0  0  0  0
 16 19  1  0  0  0  0
  2 15  1  0  0  0  0
  3 13  1  0  0  0  0
 21 20  1  6  0  0  0
 21 22  1  0  0  0  0
 21 26  1  0  0  0  0
 22 23  1  0  0  0  0
 22 31  1  1  0  0  0
 23 24  1  0  0  0  0
 23 30  1  6  0  0  0
 24 25  1  0  0  0  0
 24 29  1  1  0  0  0
 25 26  1  0  0  0  0
 25 27  1  6  0  0  0
 27 28  1  0  0  0  0
  4 20  1  0  0  0  0
  8 32  1  0  0  0  0
 33 34  2  0  0  0  0
 33 38  1  0  0  0  0
 34 35  1  0  0  0  0
 35 36  2  0  0  0  0
 36 37  1  0  0  0  0
 36 39  1  0  0  0  0
 37 38  2  0  0  0  0
  7 37  1  0  0  0  0
M  END
> <score_KierA2>
0.516788

$$$$
suggested molecule #83
 MOE2019            2D

 39 43  0  0  1  0  0  0  0  0999 V2000
    3.4992   -1.2833    0.0000 C   0  0  0  0  0  0  0  0  0  1  0  0
    4.9992   -1.2762    0.0000 C   0  0  0  0  0  0  0  0  0  2  0  0
    5.7430    0.0263    0.0000 C   0  0  0  0  0  0  0  0  0  3  0  0
    4.9869    1.3218    0.0000 C   0  0  0  0  0  0  0  0  0  4  0  0
    3.4870    1.3147    0.0000 C   0  0  0  0  0  0  0  0  0  5  0  0
    2.7431    0.0122    0.0000 C   0  0  0  0  0  0  0  0  0  6  0  0
    1.2431    0.0051    0.0000 C   0  0  0  0  0  0  0  0  0  7  0  0
    0.4870    1.3006    0.0000 C   0  0  0  0  0  0  0  0  0  8  0  0
    1.2309    2.6032    0.0000 C   0  0  0  0  0  0  0  0  0  9  0  0
    0.4748    3.8987    0.0000 O   0  0  0  0  0  0  0  0  0 10  0  0
    2.7309    2.6102    0.0000 O   0  0  0  0  0  0  0  0  0 11  0  0
    2.9041   -2.3253    0.0000 H   0  0  0  0  0  0  0  0  0  0  0  0
    7.2117   -0.2787    0.0000 O   0  0  0  0  0  0  0  0  0  0  0  0
    7.3755   -1.7697    0.0000 C   0  0  1  0  0  0  0  0  0  0  0  0
    6.0081   -2.3862    0.0000 C   0  0  0  0  0  0  0  0  0  0  0  0
    8.6781   -2.5136    0.0000 C   0  0  0  0  0  0  0  0  0  0  0  0
    7.9342   -3.8161    0.0000 C   0  0  0  0  0  0  0  0  0  0  0  0
    9.9806   -3.2575    0.0000 C   0  0  0  0  0  0  0  0  0  0  0  0
    9.4220   -1.2110    0.0000 O   0  0  0  0  0  0  0  0  0  0  0  0
    5.7308    2.6244    0.0000 O   0  0  0  0  0  0  0  0  0  0  0  0
    7.2308    2.6314    0.0000 C   0  0  1  0  0  0  0  0  0  0  0  0
    7.9747    3.9340    0.0000 C   0  0  1  0  0  0  0  0  0  0  0  0
    9.4747    3.9410    0.0000 C   0  0  2  0  0  0  0  0  0  0  0  0
   10.2308    2.6455    0.0000 C   0  0  1  0  0  0  0  0  0  0  0  0
    9.4869    1.3430    0.0000 C   0  0  2  0  0  0  0  0  0  0  0  0
    7.9869    1.3359    0.0000 O   0  0  0  0  0  0  0  0  0  0  0  0
   10.2430    0.0475    0.0000 C   0  0  0  0  0  0  0  0  0  0  0  0
   11.7430    0.0545    0.0000 O   0  0  0  0  0  0  0  0  0  0  0  0
   11.7308    2.6526    0.0000 O   0  0  0  0  0  0  0  0  0  0  0  0
   10.2186    5.2436    0.0000 O   0  0  0  0  0  0  0  0  0  0  0  0
    7.2186    5.2295    0.0000 O   0  0  0  0  0  0  0  0  0  0  0  0
   -0.7130    1.2950    0.0000 H   0  0  0  0  0  0  0  0  0  0  0  0
    0.5114   -3.8955    0.0000 C   0  0  0  0  0  0  0  0  0  0  0  0
   -0.9886   -3.9025    0.0000 C   0  0  0  0  0  0  0  0  0  0  0  0
   -1.7447   -2.6070    0.0000 C   0  0  0  0  0  0  0  0  0  0  0  0
   -1.0008   -1.3045    0.0000 C   0  0  0  0  0  0  0  0  0  0  0  0
    0.4992   -1.2974    0.0000 C   0  0  0  0  0  0  0  0  0  0  0  0
    1.2553   -2.5929    0.0000 C   0  0  0  0  0  0  0  0  0  0  0  0
   -1.7569   -0.0090    0.0000 O   0  0  0  0  0  0  0  0  0  0  0  0
  1  2  2  0  0  0  0
  1  6  1  0  0  0  0
  2  3  1  0  0  0  0
  3  4  2  0  0  0  0
  4  5  1  0  0  0  0
  5  6  2  0  0  0  0
  5 11  1  0  0  0  0
  6  7  1  0  0  0  0
  7  8  2  0  0  0  0
  8  9  1  0  0  0  0
  9 10  2  0  0  0  0
  9 11  1  0  0  0  0
  1 12  1  0  0  0  0
 13 14  1  0  0  0  0
 14 15  1  0  0  0  0
 14 16  1  6  0  0  0
 16 17  1  0  0  0  0
 16 18  1  0  0  0  0
 16 19  1  0  0  0  0
  2 15  1  0  0  0  0
  3 13  1  0  0  0  0
 21 20  1  6  0  0  0
 21 22  1  0  0  0  0
 21 26  1  0  0  0  0
 22 23  1  0  0  0  0
 22 31  1  1  0  0  0
 23 24  1  0  0  0  0
 23 30  1  6  0  0  0
 24 25  1  0  0  0  0
 24 29  1  1  0  0  0
 25 26  1  0  0  0  0
 25 27  1  6  0  0  0
 27 28  1  0  0  0  0
  4 20  1  0  0  0  0
  8 32  1  0  0  0  0
 33 34  2  0  0  0  0
 33 38  1  0  0  0  0
 34 35  1  0  0  0  0
 35 36  2  0  0  0  0
 36 37  1  0  0  0  0
 36 39  1  0  0  0  0
 37 38  2  0  0  0  0
  7 37  1  0  0  0  0
M  END
> <score_KierA3>
0.512223

$$$$
suggested molecule #84
 MOE2019            2D

 39 43  0  0  1  0  0  0  0  0999 V2000
    3.4992   -1.2833    0.0000 C   0  0  0  0  0  0  0  0  0  1  0  0
    4.9992   -1.2762    0.0000 C   0  0  0  0  0  0  0  0  0  2  0  0
    5.7430    0.0263    0.0000 C   0  0  0  0  0  0  0  0  0  3  0  0
    4.9869    1.3218    0.0000 C   0  0  0  0  0  0  0  0  0  4  0  0
    3.4870    1.3147    0.0000 C   0  0  0  0  0  0  0  0  0  5  0  0
    2.7431    0.0122    0.0000 C   0  0  0  0  0  0  0  0  0  6  0  0
    1.2431    0.0051    0.0000 C   0  0  0  0  0  0  0  0  0  7  0  0
    0.4870    1.3006    0.0000 C   0  0  0  0  0  0  0  0  0  8  0  0
    1.2309    2.6032    0.0000 C   0  0  0  0  0  0  0  0  0  9  0  0
    0.4748    3.8987    0.0000 O   0  0  0  0  0  0  0  0  0 10  0  0
    2.7309    2.6102    0.0000 O   0  0  0  0  0  0  0  0  0 11  0  0
    2.9041   -2.3253    0.0000 H   0  0  0  0  0  0  0  0  0  0  0  0
    7.2117   -0.2787    0.0000 O   0  0  0  0  0  0  0  0  0  0  0  0
    7.3755   -1.7697    0.0000 C   0  0  1  0  0  0  0  0  0  0  0  0
    6.0081   -2.3862    0.0000 C   0  0  0  0  0  0  0  0  0  0  0  0
    8.6781   -2.5136    0.0000 C   0  0  0  0  0  0  0  0  0  0  0  0
    7.9342   -3.8161    0.0000 C   0  0  0  0  0  0  0  0  0  0  0  0
    9.9806   -3.2575    0.0000 C   0  0  0  0  0  0  0  0  0  0  0  0
    9.4220   -1.2110    0.0000 O   0  0  0  0  0  0  0  0  0  0  0  0
    5.7308    2.6244    0.0000 O   0  0  0  0  0  0  0  0  0  0  0  0
    7.2308    2.6314    0.0000 C   0  0  1  0  0  0  0  0  0  0  0  0
    7.9747    3.9340    0.0000 C   0  0  1  0  0  0  0  0  0  0  0  0
    9.4747    3.9410    0.0000 C   0  0  2  0  0  0  0  0  0  0  0  0
   10.2308    2.6455    0.0000 C   0  0  1  0  0  0  0  0  0  0  0  0
    9.4869    1.3430    0.0000 C   0  0  2  0  0  0  0  0  0  0  0  0
    7.9869    1.3359    0.0000 O   0  0  0  0  0  0  0  0  0  0  0  0
   10.2430    0.0475    0.0000 C   0  0  0  0  0  0  0  0  0  0  0  0
   11.7430    0.0545    0.0000 O   0  0  0  0  0  0  0  0  0  0  0  0
   11.7308    2.6526    0.0000 O   0  0  0  0  0  0  0  0  0  0  0  0
   10.2186    5.2436    0.0000 O   0  0  0  0  0  0  0  0  0  0  0  0
    7.2186    5.2295    0.0000 O   0  0  0  0  0  0  0  0  0  0  0  0
   -0.7130    1.2950    0.0000 H   0  0  0  0  0  0  0  0  0  0  0  0
    0.5114   -3.8955    0.0000 C   0  0  0  0  0  0  0  0  0  0  0  0
   -0.9886   -3.9025    0.0000 C   0  0  0  0  0  0  0  0  0  0  0  0
   -1.7447   -2.6070    0.0000 C   0  0  0  0  0  0  0  0  0  0  0  0
   -1.0008   -1.3045    0.0000 C   0  0  0  0  0  0  0  0  0  0  0  0
    0.4992   -1.2974    0.0000 C   0  0  0  0  0  0  0  0  0  0  0  0
    1.2553   -2.5929    0.0000 C   0  0  0  0  0  0  0  0  0  0  0  0
   -1.7569   -0.0090    0.0000 O   0  0  0  0  0  0  0  0  0  0  0  0
  1  2  2  0  0  0  0
  1  6  1  0  0  0  0
  2  3  1  0  0  0  0
  3  4  2  0  0  0  0
  4  5  1  0  0  0  0
  5  6  2  0  0  0  0
  5 11  1  0  0  0  0
  6  7  1  0  0  0  0
  7  8  2  0  0  0  0
  8  9  1  0  0  0  0
  9 10  2  0  0  0  0
  9 11  1  0  0  0  0
  1 12  1  0  0  0  0
 13 14  1  0  0  0  0
 14 15  1  0  0  0  0
 14 16  1  6  0  0  0
 16 17  1  0  0  0  0
 16 18  1  0  0  0  0
 16 19  1  0  0  0  0
  2 15  1  0  0  0  0
  3 13  1  0  0  0  0
 21 20  1  6  0  0  0
 21 22  1  0  0  0  0
 21 26  1  0  0  0  0
 22 23  1  0  0  0  0
 22 31  1  1  0  0  0
 23 24  1  0  0  0  0
 23 30  1  6  0  0  0
 24 25  1  0  0  0  0
 24 29  1  1  0  0  0
 25 26  1  0  0  0  0
 25 27  1  6  0  0  0
 27 28  1  0  0  0  0
  4 20  1  0  0  0  0
  8 32  1  0  0  0  0
 33 34  2  0  0  0  0
 33 38  1  0  0  0  0
 34 35  1  0  0  0  0
 35 36  2  0  0  0  0
 36 37  1  0  0  0  0
 36 39  1  0  0  0  0
 37 38  2  0  0  0  0
  7 37  1  0  0  0  0
M  END
> <score_KierFlex>
0.516437

$$$$
suggested molecule #85
 MOE2019            2D

 49 54  0  0  1  0  0  0  0  0999 V2000
    3.4992   -1.2833    0.0000 C   0  0  0  0  0  0  0  0  0  1  0  0
    4.9992   -1.2762    0.0000 C   0  0  0  0  0  0  0  0  0  2  0  0
    5.7430    0.0263    0.0000 C   0  0  0  0  0  0  0  0  0  3  0  0
    4.9869    1.3218    0.0000 C   0  0  0  0  0  0  0  0  0  4  0  0
    3.4870    1.3147    0.0000 C   0  0  0  0  0  0  0  0  0  5  0  0
    2.7431    0.0122    0.0000 C   0  0  0  0  0  0  0  0  0  6  0  0
    1.2431    0.0051    0.0000 C   0  0  0  0  0  0  0  0  0  7  0  0
    0.4870    1.3006    0.0000 C   0  0  0  0  0  0  0  0  0  8  0  0
    1.2309    2.6032    0.0000 C   0  0  0  0  0  0  0  0  0  9  0  0
    0.4748    3.8987    0.0000 O   0  0  0  0  0  0  0  0  0 10  0  0
    2.7309    2.6102    0.0000 O   0  0  0  0  0  0  0  0  0 11  0  0
    2.9041   -2.3253    0.0000 H   0  0  0  0  0  0  0  0  0  0  0  0
    7.2117   -0.2787    0.0000 O   0  0  0  0  0  0  0  0  0  0  0  0
    7.3755   -1.7697    0.0000 C   0  0  1  0  0  0  0  0  0  0  0  0
    6.0081   -2.3862    0.0000 C   0  0  0  0  0  0  0  0  0  0  0  0
    8.6781   -2.5136    0.0000 C   0  0  0  0  0  0  0  0  0  0  0  0
    9.4220   -1.2110    0.0000 C   0  0  0  0  0  0  0  0  0  0  0  0
    9.9806   -3.2575    0.0000 C   0  0  0  0  0  0  0  0  0  0  0  0
    7.9342   -3.8161    0.0000 O   0  0  0  0  0  0  0  0  0  0  0  0
    5.7308    2.6244    0.0000 O   0  0  0  0  0  0  0  0  0  0  0  0
    7.2308    2.6314    0.0000 C   0  0  1  0  0  0  0  0  0  0  0  0
    7.9747    3.9340    0.0000 C   0  0  1  0  0  0  0  0  0  0  0  0
    9.4747    3.9410    0.0000 C   0  0  2  0  0  0  0  0  0  0  0  0
   10.2308    2.6455    0.0000 C   0  0  1  0  0  0  0  0  0  0  0  0
    9.4869    1.3430    0.0000 C   0  0  2  0  0  0  0  0  0  0  0  0
    7.9869    1.3359    0.0000 O   0  0  0  0  0  0  0  0  0  0  0  0
   10.2430    0.0475    0.0000 C   0  0  0  0  0  0  0  0  0  0  0  0
   11.7430    0.0545    0.0000 O   0  0  0  0  0  0  0  0  0  0  0  0
   11.7308    2.6526    0.0000 O   0  0  0  0  0  0  0  0  0  0  0  0
   10.2186    5.2436    0.0000 O   0  0  0  0  0  0  0  0  0  0  0  0
    7.2186    5.2295    0.0000 O   0  0  0  0  0  0  0  0  0  0  0  0
   -0.7130    1.2950    0.0000 H   0  0  0  0  0  0  0  0  0  0  0  0
    0.4992   -1.2974    0.0000 C   0  0  0  0  0  0  0  0  0  0  0  0
   -1.0008   -1.3045    0.0000 C   0  0  0  0  0  0  0  0  0  0  0  0
   -1.7447   -2.6070    0.0000 C   0  0  0  0  0  0  0  0  0  0  0  0
   -0.9886   -3.9025    0.0000 C   0  0  0  0  0  0  0  0  0  0  0  0
    0.5114   -3.8955    0.0000 C   0  0  0  0  0  0  0  0  0  0  0  0
    1.2553   -2.5929    0.0000 C   0  0  0  0  0  0  0  0  0  0  0  0
   -1.7324   -5.2051    0.0000 O   0  0  0  0  0  0  0  0  0  0  0  0
   -3.2446   -2.6141    0.0000 O   0  0  0  0  0  0  0  0  0  0  0  0
   -3.9885   -3.9166    0.0000 C   0  0  1  0  0  0  0  0  0  0  0  0
   -5.4885   -3.9237    0.0000 C   0  0  1  0  0  0  0  0  0  0  0  0
   -6.2324   -5.2262    0.0000 C   0  0  2  0  0  0  0  0  0  0  0  0
   -5.4763   -6.5217    0.0000 C   0  0  1  0  0  0  0  0  0  0  0  0
   -3.9763   -6.5147    0.0000 C   0  0  0  0  0  0  0  0  0  0  0  0
   -3.2324   -5.2121    0.0000 O   0  0  0  0  0  0  0  0  0  0  0  0
   -6.2202   -7.8243    0.0000 O   0  0  0  0  0  0  0  0  0  0  0  0
   -7.7324   -5.2333    0.0000 O   0  0  0  0  0  0  0  0  0  0  0  0
   -6.2446   -2.6282    0.0000 O   0  0  0  0  0  0  0  0  0  0  0  0
  1  2  2  0  0  0  0
  1  6  1  0  0  0  0
  2  3  1  0  0  0  0
  3  4  2  0  0  0  0
  4  5  1  0  0  0  0
  5  6  2  0  0  0  0
  5 11  1  0  0  0  0
  6  7  1  0  0  0  0
  7  8  2  0  0  0  0
  8  9  1  0  0  0  0
  9 10  2  0  0  0  0
  9 11  1  0  0  0  0
  1 12  1  0  0  0  0
 13 14  1  0  0  0  0
 14 15  1  0  0  0  0
 14 16  1  6  0  0  0
 16 17  1  0  0  0  0
 16 18  1  0  0  0  0
 16 19  1  0  0  0  0
  2 15  1  0  0  0  0
  3 13  1  0  0  0  0
 21 20  1  6  0  0  0
 21 22  1  0  0  0  0
 21 26  1  0  0  0  0
 22 23  1  0  0  0  0
 22 31  1  1  0  0  0
 23 24  1  0  0  0  0
 23 30  1  6  0  0  0
 24 25  1  0  0  0  0
 24 29  1  1  0  0  0
 25 26  1  0  0  0  0
 25 27  1  6  0  0  0
 27 28  1  0  0  0  0
  4 20  1  0  0  0  0
  8 32  1  0  0  0  0
 33 34  1  0  0  0  0
 33 38  2  0  0  0  0
 34 35  2  0  0  0  0
 35 36  1  0  0  0  0
 35 40  1  0  0  0  0
 36 37  2  0  0  0  0
 36 39  1  0  0  0  0
 37 38  1  0  0  0  0
 41 40  1  1  0  0  0
 41 42  1  0  0  0  0
 41 46  1  0  0  0  0
 42 43  1  0  0  0  0
 42 49  1  6  0  0  0
 43 44  1  0  0  0  0
 43 48  1  1  0  0  0
 44 45  1  0  0  0  0
 44 47  1  6  0  0  0
 45 46  1  0  0  0  0
  7 33  1  0  0  0  0
M  END
> <score_Kier3>
0.511541

$$$$
suggested molecule #86
 MOE2019            2D

 49 54  0  0  1  0  0  0  0  0999 V2000
    3.4992   -1.2833    0.0000 C   0  0  0  0  0  0  0  0  0  1  0  0
    4.9992   -1.2762    0.0000 C   0  0  0  0  0  0  0  0  0  2  0  0
    5.7430    0.0263    0.0000 C   0  0  0  0  0  0  0  0  0  3  0  0
    4.9869    1.3218    0.0000 C   0  0  0  0  0  0  0  0  0  4  0  0
    3.4870    1.3147    0.0000 C   0  0  0  0  0  0  0  0  0  5  0  0
    2.7431    0.0122    0.0000 C   0  0  0  0  0  0  0  0  0  6  0  0
    1.2431    0.0051    0.0000 C   0  0  0  0  0  0  0  0  0  7  0  0
    0.4870    1.3006    0.0000 C   0  0  0  0  0  0  0  0  0  8  0  0
    1.2309    2.6032    0.0000 C   0  0  0  0  0  0  0  0  0  9  0  0
    0.4748    3.8987    0.0000 O   0  0  0  0  0  0  0  0  0 10  0  0
    2.7309    2.6102    0.0000 O   0  0  0  0  0  0  0  0  0 11  0  0
    2.9041   -2.3253    0.0000 H   0  0  0  0  0  0  0  0  0  0  0  0
    7.2117   -0.2787    0.0000 O   0  0  0  0  0  0  0  0  0  0  0  0
    7.3755   -1.7697    0.0000 C   0  0  1  0  0  0  0  0  0  0  0  0
    6.0081   -2.3862    0.0000 C   0  0  0  0  0  0  0  0  0  0  0  0
    8.6781   -2.5136    0.0000 C   0  0  0  0  0  0  0  0  0  0  0  0
    9.4220   -1.2110    0.0000 C   0  0  0  0  0  0  0  0  0  0  0  0
    9.9806   -3.2575    0.0000 C   0  0  0  0  0  0  0  0  0  0  0  0
    7.9342   -3.8161    0.0000 O   0  0  0  0  0  0  0  0  0  0  0  0
    5.7308    2.6244    0.0000 O   0  0  0  0  0  0  0  0  0  0  0  0
    7.2308    2.6314    0.0000 C   0  0  1  0  0  0  0  0  0  0  0  0
    7.9747    3.9340    0.0000 C   0  0  1  0  0  0  0  0  0  0  0  0
    9.4747    3.9410    0.0000 C   0  0  2  0  0  0  0  0  0  0  0  0
   10.2308    2.6455    0.0000 C   0  0  1  0  0  0  0  0  0  0  0  0
    9.4869    1.3430    0.0000 C   0  0  2  0  0  0  0  0  0  0  0  0
    7.9869    1.3359    0.0000 O   0  0  0  0  0  0  0  0  0  0  0  0
   10.2430    0.0475    0.0000 C   0  0  0  0  0  0  0  0  0  0  0  0
   11.7430    0.0545    0.0000 O   0  0  0  0  0  0  0  0  0  0  0  0
   11.7308    2.6526    0.0000 O   0  0  0  0  0  0  0  0  0  0  0  0
   10.2186    5.2436    0.0000 O   0  0  0  0  0  0  0  0  0  0  0  0
    7.2186    5.2295    0.0000 O   0  0  0  0  0  0  0  0  0  0  0  0
   -0.7130    1.2950    0.0000 H   0  0  0  0  0  0  0  0  0  0  0  0
    0.4992   -1.2974    0.0000 C   0  0  0  0  0  0  0  0  0  0  0  0
   -1.0008   -1.3045    0.0000 C   0  0  0  0  0  0  0  0  0  0  0  0
   -1.7447   -2.6070    0.0000 C   0  0  0  0  0  0  0  0  0  0  0  0
   -0.9886   -3.9025    0.0000 C   0  0  0  0  0  0  0  0  0  0  0  0
    0.5114   -3.8955    0.0000 C   0  0  0  0  0  0  0  0  0  0  0  0
    1.2553   -2.5929    0.0000 C   0  0  0  0  0  0  0  0  0  0  0  0
   -1.7324   -5.2051    0.0000 O   0  0  0  0  0  0  0  0  0  0  0  0
   -3.2446   -2.6141    0.0000 O   0  0  0  0  0  0  0  0  0  0  0  0
   -3.9885   -3.9166    0.0000 C   0  0  1  0  0  0  0  0  0  0  0  0
   -5.4885   -3.9237    0.0000 C   0  0  1  0  0  0  0  0  0  0  0  0
   -6.2324   -5.2262    0.0000 C   0  0  2  0  0  0  0  0  0  0  0  0
   -5.4763   -6.5217    0.0000 C   0  0  1  0  0  0  0  0  0  0  0  0
   -3.9763   -6.5147    0.0000 C   0  0  0  0  0  0  0  0  0  0  0  0
   -3.2324   -5.2121    0.0000 O   0  0  0  0  0  0  0  0  0  0  0  0
   -6.2202   -7.8243    0.0000 O   0  0  0  0  0  0  0  0  0  0  0  0
   -7.7324   -5.2333    0.0000 O   0  0  0  0  0  0  0  0  0  0  0  0
   -6.2446   -2.6282    0.0000 O   0  0  0  0  0  0  0  0  0  0  0  0
  1  2  2  0  0  0  0
  1  6  1  0  0  0  0
  2  3  1  0  0  0  0
  3  4  2  0  0  0  0
  4  5  1  0  0  0  0
  5  6  2  0  0  0  0
  5 11  1  0  0  0  0
  6  7  1  0  0  0  0
  7  8  2  0  0  0  0
  8  9  1  0  0  0  0
  9 10  2  0  0  0  0
  9 11  1  0  0  0  0
  1 12  1  0  0  0  0
 13 14  1  0  0  0  0
 14 15  1  0  0  0  0
 14 16  1  6  0  0  0
 16 17  1  0  0  0  0
 16 18  1  0  0  0  0
 16 19  1  0  0  0  0
  2 15  1  0  0  0  0
  3 13  1  0  0  0  0
 21 20  1  6  0  0  0
 21 22  1  0  0  0  0
 21 26  1  0  0  0  0
 22 23  1  0  0  0  0
 22 31  1  1  0  0  0
 23 24  1  0  0  0  0
 23 30  1  6  0  0  0
 24 25  1  0  0  0  0
 24 29  1  1  0  0  0
 25 26  1  0  0  0  0
 25 27  1  6  0  0  0
 27 28  1  0  0  0  0
  4 20  1  0  0  0  0
  8 32  1  0  0  0  0
 33 34  1  0  0  0  0
 33 38  2  0  0  0  0
 34 35  2  0  0  0  0
 35 36  1  0  0  0  0
 35 40  1  0  0  0  0
 36 37  2  0  0  0  0
 36 39  1  0  0  0  0
 37 38  1  0  0  0  0
 41 40  1  1  0  0  0
 41 42  1  0  0  0  0
 41 46  1  0  0  0  0
 42 43  1  0  0  0  0
 42 49  1  6  0  0  0
 43 44  1  0  0  0  0
 43 48  1  1  0  0  0
 44 45  1  0  0  0  0
 44 47  1  6  0  0  0
 45 46  1  0  0  0  0
  7 33  1  0  0  0  0
M  END
> <score_KierA1>
0.51759

$$$$
suggested molecule #87
 MOE2019            2D

 49 54  0  0  1  0  0  0  0  0999 V2000
    3.4992   -1.2833    0.0000 C   0  0  0  0  0  0  0  0  0  1  0  0
    4.9992   -1.2762    0.0000 C   0  0  0  0  0  0  0  0  0  2  0  0
    5.7430    0.0263    0.0000 C   0  0  0  0  0  0  0  0  0  3  0  0
    4.9869    1.3218    0.0000 C   0  0  0  0  0  0  0  0  0  4  0  0
    3.4870    1.3147    0.0000 C   0  0  0  0  0  0  0  0  0  5  0  0
    2.7431    0.0122    0.0000 C   0  0  0  0  0  0  0  0  0  6  0  0
    1.2431    0.0051    0.0000 C   0  0  0  0  0  0  0  0  0  7  0  0
    0.4870    1.3006    0.0000 C   0  0  0  0  0  0  0  0  0  8  0  0
    1.2309    2.6032    0.0000 C   0  0  0  0  0  0  0  0  0  9  0  0
    0.4748    3.8987    0.0000 O   0  0  0  0  0  0  0  0  0 10  0  0
    2.7309    2.6102    0.0000 O   0  0  0  0  0  0  0  0  0 11  0  0
    2.9041   -2.3253    0.0000 H   0  0  0  0  0  0  0  0  0  0  0  0
    7.2117   -0.2787    0.0000 O   0  0  0  0  0  0  0  0  0  0  0  0
    7.3755   -1.7697    0.0000 C   0  0  1  0  0  0  0  0  0  0  0  0
    6.0081   -2.3862    0.0000 C   0  0  0  0  0  0  0  0  0  0  0  0
    8.6781   -2.5136    0.0000 C   0  0  0  0  0  0  0  0  0  0  0  0
    9.4220   -1.2110    0.0000 C   0  0  0  0  0  0  0  0  0  0  0  0
    9.9806   -3.2575    0.0000 C   0  0  0  0  0  0  0  0  0  0  0  0
    7.9342   -3.8161    0.0000 O   0  0  0  0  0  0  0  0  0  0  0  0
    5.7308    2.6244    0.0000 O   0  0  0  0  0  0  0  0  0  0  0  0
    7.2308    2.6314    0.0000 C   0  0  1  0  0  0  0  0  0  0  0  0
    7.9747    3.9340    0.0000 C   0  0  1  0  0  0  0  0  0  0  0  0
    9.4747    3.9410    0.0000 C   0  0  2  0  0  0  0  0  0  0  0  0
   10.2308    2.6455    0.0000 C   0  0  1  0  0  0  0  0  0  0  0  0
    9.4869    1.3430    0.0000 C   0  0  2  0  0  0  0  0  0  0  0  0
    7.9869    1.3359    0.0000 O   0  0  0  0  0  0  0  0  0  0  0  0
   10.2430    0.0475    0.0000 C   0  0  0  0  0  0  0  0  0  0  0  0
   11.7430    0.0545    0.0000 O   0  0  0  0  0  0  0  0  0  0  0  0
   11.7308    2.6526    0.0000 O   0  0  0  0  0  0  0  0  0  0  0  0
   10.2186    5.2436    0.0000 O   0  0  0  0  0  0  0  0  0  0  0  0
    7.2186    5.2295    0.0000 O   0  0  0  0  0  0  0  0  0  0  0  0
   -0.7130    1.2950    0.0000 H   0  0  0  0  0  0  0  0  0  0  0  0
    0.4992   -1.2974    0.0000 C   0  0  0  0  0  0  0  0  0  0  0  0
   -1.0008   -1.3045    0.0000 C   0  0  0  0  0  0  0  0  0  0  0  0
   -1.7447   -2.6070    0.0000 C   0  0  0  0  0  0  0  0  0  0  0  0
   -0.9886   -3.9025    0.0000 C   0  0  0  0  0  0  0  0  0  0  0  0
    0.5114   -3.8955    0.0000 C   0  0  0  0  0  0  0  0  0  0  0  0
    1.2553   -2.5929    0.0000 C   0  0  0  0  0  0  0  0  0  0  0  0
   -1.7324   -5.2051    0.0000 O   0  0  0  0  0  0  0  0  0  0  0  0
   -3.2446   -2.6141    0.0000 O   0  0  0  0  0  0  0  0  0  0  0  0
   -3.9885   -3.9166    0.0000 C   0  0  1  0  0  0  0  0  0  0  0  0
   -5.4885   -3.9237    0.0000 C   0  0  1  0  0  0  0  0  0  0  0  0
   -6.2324   -5.2262    0.0000 C   0  0  2  0  0  0  0  0  0  0  0  0
   -5.4763   -6.5217    0.0000 C   0  0  1  0  0  0  0  0  0  0  0  0
   -3.9763   -6.5147    0.0000 C   0  0  0  0  0  0  0  0  0  0  0  0
   -3.2324   -5.2121    0.0000 O   0  0  0  0  0  0  0  0  0  0  0  0
   -6.2202   -7.8243    0.0000 O   0  0  0  0  0  0  0  0  0  0  0  0
   -7.7324   -5.2333    0.0000 O   0  0  0  0  0  0  0  0  0  0  0  0
   -6.2446   -2.6282    0.0000 O   0  0  0  0  0  0  0  0  0  0  0  0
  1  2  2  0  0  0  0
  1  6  1  0  0  0  0
  2  3  1  0  0  0  0
  3  4  2  0  0  0  0
  4  5  1  0  0  0  0
  5  6  2  0  0  0  0
  5 11  1  0  0  0  0
  6  7  1  0  0  0  0
  7  8  2  0  0  0  0
  8  9  1  0  0  0  0
  9 10  2  0  0  0  0
  9 11  1  0  0  0  0
  1 12  1  0  0  0  0
 13 14  1  0  0  0  0
 14 15  1  0  0  0  0
 14 16  1  6  0  0  0
 16 17  1  0  0  0  0
 16 18  1  0  0  0  0
 16 19  1  0  0  0  0
  2 15  1  0  0  0  0
  3 13  1  0  0  0  0
 21 20  1  6  0  0  0
 21 22  1  0  0  0  0
 21 26  1  0  0  0  0
 22 23  1  0  0  0  0
 22 31  1  1  0  0  0
 23 24  1  0  0  0  0
 23 30  1  6  0  0  0
 24 25  1  0  0  0  0
 24 29  1  1  0  0  0
 25 26  1  0  0  0  0
 25 27  1  6  0  0  0
 27 28  1  0  0  0  0
  4 20  1  0  0  0  0
  8 32  1  0  0  0  0
 33 34  1  0  0  0  0
 33 38  2  0  0  0  0
 34 35  2  0  0  0  0
 35 36  1  0  0  0  0
 35 40  1  0  0  0  0
 36 37  2  0  0  0  0
 36 39  1  0  0  0  0
 37 38  1  0  0  0  0
 41 40  1  1  0  0  0
 41 42  1  0  0  0  0
 41 46  1  0  0  0  0
 42 43  1  0  0  0  0
 42 49  1  6  0  0  0
 43 44  1  0  0  0  0
 43 48  1  1  0  0  0
 44 45  1  0  0  0  0
 44 47  1  6  0  0  0
 45 46  1  0  0  0  0
  7 33  1  0  0  0  0
M  END
> <score_KierA3>
0.51215

$$$$
suggested molecule #88
 MOE2019            2D

 49 54  0  0  1  0  0  0  0  0999 V2000
    3.4992   -1.2833    0.0000 C   0  0  0  0  0  0  0  0  0  1  0  0
    4.9992   -1.2762    0.0000 C   0  0  0  0  0  0  0  0  0  2  0  0
    5.7430    0.0263    0.0000 C   0  0  0  0  0  0  0  0  0  3  0  0
    4.9869    1.3218    0.0000 C   0  0  0  0  0  0  0  0  0  4  0  0
    3.4870    1.3147    0.0000 C   0  0  0  0  0  0  0  0  0  5  0  0
    2.7431    0.0122    0.0000 C   0  0  0  0  0  0  0  0  0  6  0  0
    1.2431    0.0051    0.0000 C   0  0  0  0  0  0  0  0  0  7  0  0
    0.4870    1.3006    0.0000 C   0  0  0  0  0  0  0  0  0  8  0  0
    1.2309    2.6032    0.0000 C   0  0  0  0  0  0  0  0  0  9  0  0
    0.4748    3.8987    0.0000 O   0  0  0  0  0  0  0  0  0 10  0  0
    2.7309    2.6102    0.0000 O   0  0  0  0  0  0  0  0  0 11  0  0
    2.9041   -2.3253    0.0000 H   0  0  0  0  0  0  0  0  0  0  0  0
    7.2117   -0.2787    0.0000 O   0  0  0  0  0  0  0  0  0  0  0  0
    7.3755   -1.7697    0.0000 C   0  0  1  0  0  0  0  0  0  0  0  0
    6.0081   -2.3862    0.0000 C   0  0  0  0  0  0  0  0  0  0  0  0
    8.6781   -2.5136    0.0000 C   0  0  0  0  0  0  0  0  0  0  0  0
    9.4220   -1.2110    0.0000 C   0  0  0  0  0  0  0  0  0  0  0  0
    9.9806   -3.2575    0.0000 C   0  0  0  0  0  0  0  0  0  0  0  0
    7.9342   -3.8161    0.0000 O   0  0  0  0  0  0  0  0  0  0  0  0
    5.7308    2.6244    0.0000 O   0  0  0  0  0  0  0  0  0  0  0  0
    7.2308    2.6314    0.0000 C   0  0  1  0  0  0  0  0  0  0  0  0
    7.9747    3.9340    0.0000 C   0  0  1  0  0  0  0  0  0  0  0  0
    9.4747    3.9410    0.0000 C   0  0  2  0  0  0  0  0  0  0  0  0
   10.2308    2.6455    0.0000 C   0  0  1  0  0  0  0  0  0  0  0  0
    9.4869    1.3430    0.0000 C   0  0  2  0  0  0  0  0  0  0  0  0
    7.9869    1.3359    0.0000 O   0  0  0  0  0  0  0  0  0  0  0  0
   10.2430    0.0475    0.0000 C   0  0  0  0  0  0  0  0  0  0  0  0
   11.7430    0.0545    0.0000 O   0  0  0  0  0  0  0  0  0  0  0  0
   11.7308    2.6526    0.0000 O   0  0  0  0  0  0  0  0  0  0  0  0
   10.2186    5.2436    0.0000 O   0  0  0  0  0  0  0  0  0  0  0  0
    7.2186    5.2295    0.0000 O   0  0  0  0  0  0  0  0  0  0  0  0
   -0.7130    1.2950    0.0000 H   0  0  0  0  0  0  0  0  0  0  0  0
    0.4992   -1.2974    0.0000 C   0  0  0  0  0  0  0  0  0  0  0  0
   -1.0008   -1.3045    0.0000 C   0  0  0  0  0  0  0  0  0  0  0  0
   -1.7447   -2.6070    0.0000 C   0  0  0  0  0  0  0  0  0  0  0  0
   -0.9886   -3.9025    0.0000 C   0  0  0  0  0  0  0  0  0  0  0  0
    0.5114   -3.8955    0.0000 C   0  0  0  0  0  0  0  0  0  0  0  0
    1.2553   -2.5929    0.0000 C   0  0  0  0  0  0  0  0  0  0  0  0
   -1.7324   -5.2051    0.0000 O   0  0  0  0  0  0  0  0  0  0  0  0
   -3.2446   -2.6141    0.0000 O   0  0  0  0  0  0  0  0  0  0  0  0
   -3.9885   -3.9166    0.0000 C   0  0  1  0  0  0  0  0  0  0  0  0
   -5.4885   -3.9237    0.0000 C   0  0  1  0  0  0  0  0  0  0  0  0
   -6.2324   -5.2262    0.0000 C   0  0  2  0  0  0  0  0  0  0  0  0
   -5.4763   -6.5217    0.0000 C   0  0  1  0  0  0  0  0  0  0  0  0
   -3.9763   -6.5147    0.0000 C   0  0  0  0  0  0  0  0  0  0  0  0
   -3.2324   -5.2121    0.0000 O   0  0  0  0  0  0  0  0  0  0  0  0
   -6.2202   -7.8243    0.0000 O   0  0  0  0  0  0  0  0  0  0  0  0
   -7.7324   -5.2333    0.0000 O   0  0  0  0  0  0  0  0  0  0  0  0
   -6.2446   -2.6282    0.0000 O   0  0  0  0  0  0  0  0  0  0  0  0
  1  2  2  0  0  0  0
  1  6  1  0  0  0  0
  2  3  1  0  0  0  0
  3  4  2  0  0  0  0
  4  5  1  0  0  0  0
  5  6  2  0  0  0  0
  5 11  1  0  0  0  0
  6  7  1  0  0  0  0
  7  8  2  0  0  0  0
  8  9  1  0  0  0  0
  9 10  2  0  0  0  0
  9 11  1  0  0  0  0
  1 12  1  0  0  0  0
 13 14  1  0  0  0  0
 14 15  1  0  0  0  0
 14 16  1  6  0  0  0
 16 17  1  0  0  0  0
 16 18  1  0  0  0  0
 16 19  1  0  0  0  0
  2 15  1  0  0  0  0
  3 13  1  0  0  0  0
 21 20  1  6  0  0  0
 21 22  1  0  0  0  0
 21 26  1  0  0  0  0
 22 23  1  0  0  0  0
 22 31  1  1  0  0  0
 23 24  1  0  0  0  0
 23 30  1  6  0  0  0
 24 25  1  0  0  0  0
 24 29  1  1  0  0  0
 25 26  1  0  0  0  0
 25 27  1  6  0  0  0
 27 28  1  0  0  0  0
  4 20  1  0  0  0  0
  8 32  1  0  0  0  0
 33 34  1  0  0  0  0
 33 38  2  0  0  0  0
 34 35  2  0  0  0  0
 35 36  1  0  0  0  0
 35 40  1  0  0  0  0
 36 37  2  0  0  0  0
 36 39  1  0  0  0  0
 37 38  1  0  0  0  0
 41 40  1  1  0  0  0
 41 42  1  0  0  0  0
 41 46  1  0  0  0  0
 42 43  1  0  0  0  0
 42 49  1  6  0  0  0
 43 44  1  0  0  0  0
 43 48  1  1  0  0  0
 44 45  1  0  0  0  0
 44 47  1  6  0  0  0
 45 46  1  0  0  0  0
  7 33  1  0  0  0  0
M  END
> <score_KierFlex>
0.516339

$$$$
suggested molecule #89
 MOE2019            2D

 50 55  0  0  1  0  0  0  0  0999 V2000
    3.4992   -1.2833    0.0000 C   0  0  0  0  0  0  0  0  0  1  0  0
    4.9992   -1.2762    0.0000 C   0  0  0  0  0  0  0  0  0  2  0  0
    5.7430    0.0263    0.0000 C   0  0  0  0  0  0  0  0  0  3  0  0
    4.9869    1.3218    0.0000 C   0  0  0  0  0  0  0  0  0  4  0  0
    3.4870    1.3147    0.0000 C   0  0  0  0  0  0  0  0  0  5  0  0
    2.7431    0.0122    0.0000 C   0  0  0  0  0  0  0  0  0  6  0  0
    1.2431    0.0051    0.0000 C   0  0  0  0  0  0  0  0  0  7  0  0
    0.4870    1.3006    0.0000 C   0  0  0  0  0  0  0  0  0  8  0  0
    1.2309    2.6032    0.0000 C   0  0  0  0  0  0  0  0  0  9  0  0
    0.4748    3.8987    0.0000 O   0  0  0  0  0  0  0  0  0 10  0  0
    2.7309    2.6102    0.0000 O   0  0  0  0  0  0  0  0  0 11  0  0
    2.9041   -2.3253    0.0000 H   0  0  0  0  0  0  0  0  0  0  0  0
    7.2117   -0.2787    0.0000 O   0  0  0  0  0  0  0  0  0  0  0  0
    7.3755   -1.7697    0.0000 C   0  0  1  0  0  0  0  0  0  0  0  0
    6.0081   -2.3862    0.0000 C   0  0  0  0  0  0  0  0  0  0  0  0
    8.6781   -2.5136    0.0000 C   0  0  0  0  0  0  0  0  0  0  0  0
    9.4220   -1.2110    0.0000 C   0  0  0  0  0  0  0  0  0  0  0  0
    9.9806   -3.2575    0.0000 C   0  0  0  0  0  0  0  0  0  0  0  0
    7.9342   -3.8161    0.0000 O   0  0  0  0  0  0  0  0  0  0  0  0
    5.7308    2.6244    0.0000 O   0  0  0  0  0  0  0  0  0  0  0  0
    7.2308    2.6314    0.0000 C   0  0  1  0  0  0  0  0  0  0  0  0
    7.9747    3.9340    0.0000 C   0  0  1  0  0  0  0  0  0  0  0  0
    9.4747    3.9410    0.0000 C   0  0  2  0  0  0  0  0  0  0  0  0
   10.2308    2.6455    0.0000 C   0  0  1  0  0  0  0  0  0  0  0  0
    9.4869    1.3430    0.0000 C   0  0  2  0  0  0  0  0  0  0  0  0
    7.9869    1.3359    0.0000 O   0  0  0  0  0  0  0  0  0  0  0  0
   10.2430    0.0475    0.0000 C   0  0  0  0  0  0  0  0  0  0  0  0
   11.7430    0.0545    0.0000 O   0  0  0  0  0  0  0  0  0  0  0  0
   11.7308    2.6526    0.0000 O   0  0  0  0  0  0  0  0  0  0  0  0
   10.2186    5.2436    0.0000 O   0  0  0  0  0  0  0  0  0  0  0  0
    7.2186    5.2295    0.0000 O   0  0  0  0  0  0  0  0  0  0  0  0
   -0.7130    1.2950    0.0000 H   0  0  0  0  0  0  0  0  0  0  0  0
    0.4992   -1.2974    0.0000 C   0  0  0  0  0  0  0  0  0  0  0  0
   -1.0008   -1.3045    0.0000 C   0  0  0  0  0  0  0  0  0  0  0  0
   -1.7447   -2.6070    0.0000 C   0  0  0  0  0  0  0  0  0  0  0  0
   -0.9886   -3.9025    0.0000 C   0  0  0  0  0  0  0  0  0  0  0  0
    0.5114   -3.8955    0.0000 C   0  0  0  0  0  0  0  0  0  0  0  0
    1.2553   -2.5929    0.0000 C   0  0  0  0  0  0  0  0  0  0  0  0
   -1.7324   -5.2051    0.0000 O   0  0  0  0  0  0  0  0  0  0  0  0
   -3.2324   -5.2121    0.0000 C   0  0  0  0  0  0  0  0  0  0  0  0
   -3.9763   -6.5147    0.0000 C   0  0  0  0  0  0  0  0  0  0  0  0
   -5.4763   -6.5217    0.0000 C   0  0  0  0  0  0  0  0  0  0  0  0
   -6.2324   -5.2262    0.0000 C   0  0  0  0  0  0  0  0  0  0  0  0
   -5.4885   -3.9237    0.0000 C   0  0  0  0  0  0  0  0  0  0  0  0
   -3.9885   -3.9166    0.0000 O   0  0  0  0  0  0  0  0  0  0  0  0
   -6.2446   -2.6282    0.0000 C   0  0  0  0  0  0  0  0  0  0  0  0
   -7.7446   -2.6352    0.0000 O   0  0  0  0  0  0  0  0  0  0  0  0
   -7.7324   -5.2333    0.0000 O   0  0  0  0  0  0  0  0  0  0  0  0
   -6.2202   -7.8243    0.0000 O   0  0  0  0  0  0  0  0  0  0  0  0
   -3.2202   -7.8102    0.0000 O   0  0  0  0  0  0  0  0  0  0  0  0
  1  2  2  0  0  0  0
  1  6  1  0  0  0  0
  2  3  1  0  0  0  0
  3  4  2  0  0  0  0
  4  5  1  0  0  0  0
  5  6  2  0  0  0  0
  5 11  1  0  0  0  0
  6  7  1  0  0  0  0
  7  8  2  0  0  0  0
  8  9  1  0  0  0  0
  9 10  2  0  0  0  0
  9 11  1  0  0  0  0
  1 12  1  0  0  0  0
 13 14  1  0  0  0  0
 14 15  1  0  0  0  0
 14 16  1  6  0  0  0
 16 17  1  0  0  0  0
 16 18  1  0  0  0  0
 16 19  1  0  0  0  0
  2 15  1  0  0  0  0
  3 13  1  0  0  0  0
 21 20  1  6  0  0  0
 21 22  1  0  0  0  0
 21 26  1  0  0  0  0
 22 23  1  0  0  0  0
 22 31  1  1  0  0  0
 23 24  1  0  0  0  0
 23 30  1  6  0  0  0
 24 25  1  0  0  0  0
 24 29  1  1  0  0  0
 25 26  1  0  0  0  0
 25 27  1  6  0  0  0
 27 28  1  0  0  0  0
  4 20  1  0  0  0  0
  8 32  1  0  0  0  0
 33 34  1  0  0  0  0
 33 38  2  0  0  0  0
 34 35  2  0  0  0  0
 35 36  1  0  0  0  0
 36 37  2  0  0  0  0
 36 39  1  0  0  0  0
 37 38  1  0  0  0  0
 39 40  1  0  0  0  0
 40 41  1  0  0  0  0
 40 45  1  0  0  0  0
 41 42  1  0  0  0  0
 41 50  1  0  0  0  0
 42 43  1  0  0  0  0
 42 49  1  0  0  0  0
 43 44  1  0  0  0  0
 43 48  1  0  0  0  0
 44 45  1  0  0  0  0
 44 46  1  0  0  0  0
 46 47  1  0  0  0  0
  7 33  1  0  0  0  0
M  END
> <score_Kier3>
0.511478

$$$$
suggested molecule #90
 MOE2019            2D

 50 55  0  0  1  0  0  0  0  0999 V2000
    3.4992   -1.2833    0.0000 C   0  0  0  0  0  0  0  0  0  1  0  0
    4.9992   -1.2762    0.0000 C   0  0  0  0  0  0  0  0  0  2  0  0
    5.7430    0.0263    0.0000 C   0  0  0  0  0  0  0  0  0  3  0  0
    4.9869    1.3218    0.0000 C   0  0  0  0  0  0  0  0  0  4  0  0
    3.4870    1.3147    0.0000 C   0  0  0  0  0  0  0  0  0  5  0  0
    2.7431    0.0122    0.0000 C   0  0  0  0  0  0  0  0  0  6  0  0
    1.2431    0.0051    0.0000 C   0  0  0  0  0  0  0  0  0  7  0  0
    0.4870    1.3006    0.0000 C   0  0  0  0  0  0  0  0  0  8  0  0
    1.2309    2.6032    0.0000 C   0  0  0  0  0  0  0  0  0  9  0  0
    0.4748    3.8987    0.0000 O   0  0  0  0  0  0  0  0  0 10  0  0
    2.7309    2.6102    0.0000 O   0  0  0  0  0  0  0  0  0 11  0  0
    2.9041   -2.3253    0.0000 H   0  0  0  0  0  0  0  0  0  0  0  0
    7.2117   -0.2787    0.0000 O   0  0  0  0  0  0  0  0  0  0  0  0
    7.3755   -1.7697    0.0000 C   0  0  1  0  0  0  0  0  0  0  0  0
    6.0081   -2.3862    0.0000 C   0  0  0  0  0  0  0  0  0  0  0  0
    8.6781   -2.5136    0.0000 C   0  0  0  0  0  0  0  0  0  0  0  0
    9.4220   -1.2110    0.0000 C   0  0  0  0  0  0  0  0  0  0  0  0
    9.9806   -3.2575    0.0000 C   0  0  0  0  0  0  0  0  0  0  0  0
    7.9342   -3.8161    0.0000 O   0  0  0  0  0  0  0  0  0  0  0  0
    5.7308    2.6244    0.0000 O   0  0  0  0  0  0  0  0  0  0  0  0
    7.2308    2.6314    0.0000 C   0  0  1  0  0  0  0  0  0  0  0  0
    7.9747    3.9340    0.0000 C   0  0  1  0  0  0  0  0  0  0  0  0
    9.4747    3.9410    0.0000 C   0  0  2  0  0  0  0  0  0  0  0  0
   10.2308    2.6455    0.0000 C   0  0  1  0  0  0  0  0  0  0  0  0
    9.4869    1.3430    0.0000 C   0  0  2  0  0  0  0  0  0  0  0  0
    7.9869    1.3359    0.0000 O   0  0  0  0  0  0  0  0  0  0  0  0
   10.2430    0.0475    0.0000 C   0  0  0  0  0  0  0  0  0  0  0  0
   11.7430    0.0545    0.0000 O   0  0  0  0  0  0  0  0  0  0  0  0
   11.7308    2.6526    0.0000 O   0  0  0  0  0  0  0  0  0  0  0  0
   10.2186    5.2436    0.0000 O   0  0  0  0  0  0  0  0  0  0  0  0
    7.2186    5.2295    0.0000 O   0  0  0  0  0  0  0  0  0  0  0  0
   -0.7130    1.2950    0.0000 H   0  0  0  0  0  0  0  0  0  0  0  0
    0.4992   -1.2974    0.0000 C   0  0  0  0  0  0  0  0  0  0  0  0
   -1.0008   -1.3045    0.0000 C   0  0  0  0  0  0  0  0  0  0  0  0
   -1.7447   -2.6070    0.0000 C   0  0  0  0  0  0  0  0  0  0  0  0
   -0.9886   -3.9025    0.0000 C   0  0  0  0  0  0  0  0  0  0  0  0
    0.5114   -3.8955    0.0000 C   0  0  0  0  0  0  0  0  0  0  0  0
    1.2553   -2.5929    0.0000 C   0  0  0  0  0  0  0  0  0  0  0  0
   -1.7324   -5.2051    0.0000 O   0  0  0  0  0  0  0  0  0  0  0  0
   -3.2324   -5.2121    0.0000 C   0  0  0  0  0  0  0  0  0  0  0  0
   -3.9763   -6.5147    0.0000 C   0  0  0  0  0  0  0  0  0  0  0  0
   -5.4763   -6.5217    0.0000 C   0  0  0  0  0  0  0  0  0  0  0  0
   -6.2324   -5.2262    0.0000 C   0  0  0  0  0  0  0  0  0  0  0  0
   -5.4885   -3.9237    0.0000 C   0  0  0  0  0  0  0  0  0  0  0  0
   -3.9885   -3.9166    0.0000 O   0  0  0  0  0  0  0  0  0  0  0  0
   -6.2446   -2.6282    0.0000 C   0  0  0  0  0  0  0  0  0  0  0  0
   -7.7446   -2.6352    0.0000 O   0  0  0  0  0  0  0  0  0  0  0  0
   -7.7324   -5.2333    0.0000 O   0  0  0  0  0  0  0  0  0  0  0  0
   -6.2202   -7.8243    0.0000 O   0  0  0  0  0  0  0  0  0  0  0  0
   -3.2202   -7.8102    0.0000 O   0  0  0  0  0  0  0  0  0  0  0  0
  1  2  2  0  0  0  0
  1  6  1  0  0  0  0
  2  3  1  0  0  0  0
  3  4  2  0  0  0  0
  4  5  1  0  0  0  0
  5  6  2  0  0  0  0
  5 11  1  0  0  0  0
  6  7  1  0  0  0  0
  7  8  2  0  0  0  0
  8  9  1  0  0  0  0
  9 10  2  0  0  0  0
  9 11  1  0  0  0  0
  1 12  1  0  0  0  0
 13 14  1  0  0  0  0
 14 15  1  0  0  0  0
 14 16  1  6  0  0  0
 16 17  1  0  0  0  0
 16 18  1  0  0  0  0
 16 19  1  0  0  0  0
  2 15  1  0  0  0  0
  3 13  1  0  0  0  0
 21 20  1  6  0  0  0
 21 22  1  0  0  0  0
 21 26  1  0  0  0  0
 22 23  1  0  0  0  0
 22 31  1  1  0  0  0
 23 24  1  0  0  0  0
 23 30  1  6  0  0  0
 24 25  1  0  0  0  0
 24 29  1  1  0  0  0
 25 26  1  0  0  0  0
 25 27  1  6  0  0  0
 27 28  1  0  0  0  0
  4 20  1  0  0  0  0
  8 32  1  0  0  0  0
 33 34  1  0  0  0  0
 33 38  2  0  0  0  0
 34 35  2  0  0  0  0
 35 36  1  0  0  0  0
 36 37  2  0  0  0  0
 36 39  1  0  0  0  0
 37 38  1  0  0  0  0
 39 40  1  0  0  0  0
 40 41  1  0  0  0  0
 40 45  1  0  0  0  0
 41 42  1  0  0  0  0
 41 50  1  0  0  0  0
 42 43  1  0  0  0  0
 42 49  1  0  0  0  0
 43 44  1  0  0  0  0
 43 48  1  0  0  0  0
 44 45  1  0  0  0  0
 44 46  1  0  0  0  0
 46 47  1  0  0  0  0
  7 33  1  0  0  0  0
M  END
> <score_KierFlex>
0.516274

$$$$
suggested molecule #91
 MOE2019            2D

 42 46  0  0  1  0  0  0  0  0999 V2000
    3.4992   -1.2833    0.0000 C   0  0  0  0  0  0  0  0  0  1  0  0
    4.9992   -1.2762    0.0000 C   0  0  0  0  0  0  0  0  0  2  0  0
    5.7430    0.0263    0.0000 C   0  0  0  0  0  0  0  0  0  3  0  0
    4.9869    1.3218    0.0000 C   0  0  0  0  0  0  0  0  0  4  0  0
    3.4870    1.3147    0.0000 C   0  0  0  0  0  0  0  0  0  5  0  0
    2.7431    0.0122    0.0000 C   0  0  0  0  0  0  0  0  0  6  0  0
    1.2431    0.0051    0.0000 C   0  0  0  0  0  0  0  0  0  7  0  0
    0.4870    1.3006    0.0000 C   0  0  0  0  0  0  0  0  0  8  0  0
    1.2309    2.6032    0.0000 C   0  0  0  0  0  0  0  0  0  9  0  0
    0.4748    3.8987    0.0000 O   0  0  0  0  0  0  0  0  0 10  0  0
    2.7309    2.6102    0.0000 O   0  0  0  0  0  0  0  0  0 11  0  0
    2.9041   -2.3253    0.0000 H   0  0  0  0  0  0  0  0  0  0  0  0
    7.2117   -0.2787    0.0000 O   0  0  0  0  0  0  0  0  0  0  0  0
    7.3755   -1.7697    0.0000 C   0  0  1  0  0  0  0  0  0  0  0  0
    6.0081   -2.3862    0.0000 C   0  0  0  0  0  0  0  0  0  0  0  0
    8.6781   -2.5136    0.0000 C   0  0  0  0  0  0  0  0  0  0  0  0
    9.4220   -1.2110    0.0000 C   0  0  0  0  0  0  0  0  0  0  0  0
    9.9806   -3.2575    0.0000 C   0  0  0  0  0  0  0  0  0  0  0  0
    7.9342   -3.8161    0.0000 O   0  0  0  0  0  0  0  0  0  0  0  0
    5.7308    2.6244    0.0000 O   0  0  0  0  0  0  0  0  0  0  0  0
    7.2308    2.6314    0.0000 C   0  0  1  0  0  0  0  0  0  0  0  0
    7.9747    3.9340    0.0000 C   0  0  1  0  0  0  0  0  0  0  0  0
    9.4747    3.9410    0.0000 C   0  0  2  0  0  0  0  0  0  0  0  0
   10.2308    2.6455    0.0000 C   0  0  1  0  0  0  0  0  0  0  0  0
    9.4869    1.3430    0.0000 C   0  0  2  0  0  0  0  0  0  0  0  0
    7.9869    1.3359    0.0000 O   0  0  0  0  0  0  0  0  0  0  0  0
   10.2430    0.0475    0.0000 C   0  0  0  0  0  0  0  0  0  0  0  0
   11.7430    0.0545    0.0000 O   0  0  0  0  0  0  0  0  0  0  0  0
   11.7308    2.6526    0.0000 O   0  0  0  0  0  0  0  0  0  0  0  0
   10.2186    5.2436    0.0000 O   0  0  0  0  0  0  0  0  0  0  0  0
    7.2186    5.2295    0.0000 O   0  0  0  0  0  0  0  0  0  0  0  0
   -0.7130    1.2950    0.0000 H   0  0  0  0  0  0  0  0  0  0  0  0
   -0.9763   -6.5006    0.0000 C   0  0  0  0  0  0  0  0  0  0  0  0
   -1.7324   -5.2051    0.0000 O   0  0  0  0  0  0  0  0  0  0  0  0
   -0.9886   -3.9025    0.0000 C   0  0  0  0  0  0  0  0  0  0  0  0
   -1.7447   -2.6070    0.0000 C   0  0  0  0  0  0  0  0  0  0  0  0
   -1.0008   -1.3045    0.0000 C   0  0  0  0  0  0  0  0  0  0  0  0
    0.4992   -1.2974    0.0000 C   0  0  0  0  0  0  0  0  0  0  0  0
    1.2553   -2.5929    0.0000 C   0  0  0  0  0  0  0  0  0  0  0  0
    0.5114   -3.8955    0.0000 C   0  0  0  0  0  0  0  0  0  0  0  0
   -3.2446   -2.6141    0.0000 O   0  0  0  0  0  0  0  0  0  0  0  0
   -4.0007   -1.3186    0.0000 C   0  0  0  0  0  0  0  0  0  0  0  0
  1  2  2  0  0  0  0
  1  6  1  0  0  0  0
  2  3  1  0  0  0  0
  3  4  2  0  0  0  0
  4  5  1  0  0  0  0
  5  6  2  0  0  0  0
  5 11  1  0  0  0  0
  6  7  1  0  0  0  0
  7  8  2  0  0  0  0
  8  9  1  0  0  0  0
  9 10  2  0  0  0  0
  9 11  1  0  0  0  0
  1 12  1  0  0  0  0
 13 14  1  0  0  0  0
 14 15  1  0  0  0  0
 14 16  1  6  0  0  0
 16 17  1  0  0  0  0
 16 18  1  0  0  0  0
 16 19  1  0  0  0  0
  2 15  1  0  0  0  0
  3 13  1  0  0  0  0
 21 20  1  6  0  0  0
 21 22  1  0  0  0  0
 21 26  1  0  0  0  0
 22 23  1  0  0  0  0
 22 31  1  1  0  0  0
 23 24  1  0  0  0  0
 23 30  1  6  0  0  0
 24 25  1  0  0  0  0
 24 29  1  1  0  0  0
 25 26  1  0  0  0  0
 25 27  1  6  0  0  0
 27 28  1  0  0  0  0
  4 20  1  0  0  0  0
  8 32  1  0  0  0  0
 33 34  1  0  0  0  0
 34 35  1  0  0  0  0
 35 36  2  0  0  0  0
 35 40  1  0  0  0  0
 36 37  1  0  0  0  0
 36 41  1  0  0  0  0
 37 38  2  0  0  0  0
 38 39  1  0  0  0  0
 39 40  2  0  0  0  0
 41 42  1  0  0  0  0
  7 38  1  0  0  0  0
M  END
> <score_Kier3>
0.511518

$$$$
suggested molecule #92
 MOE2019            2D

 42 46  0  0  1  0  0  0  0  0999 V2000
    3.4992   -1.2833    0.0000 C   0  0  0  0  0  0  0  0  0  1  0  0
    4.9992   -1.2762    0.0000 C   0  0  0  0  0  0  0  0  0  2  0  0
    5.7430    0.0263    0.0000 C   0  0  0  0  0  0  0  0  0  3  0  0
    4.9869    1.3218    0.0000 C   0  0  0  0  0  0  0  0  0  4  0  0
    3.4870    1.3147    0.0000 C   0  0  0  0  0  0  0  0  0  5  0  0
    2.7431    0.0122    0.0000 C   0  0  0  0  0  0  0  0  0  6  0  0
    1.2431    0.0051    0.0000 C   0  0  0  0  0  0  0  0  0  7  0  0
    0.4870    1.3006    0.0000 C   0  0  0  0  0  0  0  0  0  8  0  0
    1.2309    2.6032    0.0000 C   0  0  0  0  0  0  0  0  0  9  0  0
    0.4748    3.8987    0.0000 O   0  0  0  0  0  0  0  0  0 10  0  0
    2.7309    2.6102    0.0000 O   0  0  0  0  0  0  0  0  0 11  0  0
    2.9041   -2.3253    0.0000 H   0  0  0  0  0  0  0  0  0  0  0  0
    7.2117   -0.2787    0.0000 O   0  0  0  0  0  0  0  0  0  0  0  0
    7.3755   -1.7697    0.0000 C   0  0  1  0  0  0  0  0  0  0  0  0
    6.0081   -2.3862    0.0000 C   0  0  0  0  0  0  0  0  0  0  0  0
    8.6781   -2.5136    0.0000 C   0  0  0  0  0  0  0  0  0  0  0  0
    9.4220   -1.2110    0.0000 C   0  0  0  0  0  0  0  0  0  0  0  0
    9.9806   -3.2575    0.0000 C   0  0  0  0  0  0  0  0  0  0  0  0
    7.9342   -3.8161    0.0000 O   0  0  0  0  0  0  0  0  0  0  0  0
    5.7308    2.6244    0.0000 O   0  0  0  0  0  0  0  0  0  0  0  0
    7.2308    2.6314    0.0000 C   0  0  1  0  0  0  0  0  0  0  0  0
    7.9747    3.9340    0.0000 C   0  0  1  0  0  0  0  0  0  0  0  0
    9.4747    3.9410    0.0000 C   0  0  2  0  0  0  0  0  0  0  0  0
   10.2308    2.6455    0.0000 C   0  0  1  0  0  0  0  0  0  0  0  0
    9.4869    1.3430    0.0000 C   0  0  2  0  0  0  0  0  0  0  0  0
    7.9869    1.3359    0.0000 O   0  0  0  0  0  0  0  0  0  0  0  0
   10.2430    0.0475    0.0000 C   0  0  0  0  0  0  0  0  0  0  0  0
   11.7430    0.0545    0.0000 O   0  0  0  0  0  0  0  0  0  0  0  0
   11.7308    2.6526    0.0000 O   0  0  0  0  0  0  0  0  0  0  0  0
   10.2186    5.2436    0.0000 O   0  0  0  0  0  0  0  0  0  0  0  0
    7.2186    5.2295    0.0000 O   0  0  0  0  0  0  0  0  0  0  0  0
   -0.7130    1.2950    0.0000 H   0  0  0  0  0  0  0  0  0  0  0  0
   -0.9763   -6.5006    0.0000 C   0  0  0  0  0  0  0  0  0  0  0  0
   -1.7324   -5.2051    0.0000 O   0  0  0  0  0  0  0  0  0  0  0  0
   -0.9886   -3.9025    0.0000 C   0  0  0  0  0  0  0  0  0  0  0  0
   -1.7447   -2.6070    0.0000 C   0  0  0  0  0  0  0  0  0  0  0  0
   -1.0008   -1.3045    0.0000 C   0  0  0  0  0  0  0  0  0  0  0  0
    0.4992   -1.2974    0.0000 C   0  0  0  0  0  0  0  0  0  0  0  0
    1.2553   -2.5929    0.0000 C   0  0  0  0  0  0  0  0  0  0  0  0
    0.5114   -3.8955    0.0000 C   0  0  0  0  0  0  0  0  0  0  0  0
   -3.2446   -2.6141    0.0000 O   0  0  0  0  0  0  0  0  0  0  0  0
   -4.0007   -1.3186    0.0000 C   0  0  0  0  0  0  0  0  0  0  0  0
  1  2  2  0  0  0  0
  1  6  1  0  0  0  0
  2  3  1  0  0  0  0
  3  4  2  0  0  0  0
  4  5  1  0  0  0  0
  5  6  2  0  0  0  0
  5 11  1  0  0  0  0
  6  7  1  0  0  0  0
  7  8  2  0  0  0  0
  8  9  1  0  0  0  0
  9 10  2  0  0  0  0
  9 11  1  0  0  0  0
  1 12  1  0  0  0  0
 13 14  1  0  0  0  0
 14 15  1  0  0  0  0
 14 16  1  6  0  0  0
 16 17  1  0  0  0  0
 16 18  1  0  0  0  0
 16 19  1  0  0  0  0
  2 15  1  0  0  0  0
  3 13  1  0  0  0  0
 21 20  1  6  0  0  0
 21 22  1  0  0  0  0
 21 26  1  0  0  0  0
 22 23  1  0  0  0  0
 22 31  1  1  0  0  0
 23 24  1  0  0  0  0
 23 30  1  6  0  0  0
 24 25  1  0  0  0  0
 24 29  1  1  0  0  0
 25 26  1  0  0  0  0
 25 27  1  6  0  0  0
 27 28  1  0  0  0  0
  4 20  1  0  0  0  0
  8 32  1  0  0  0  0
 33 34  1  0  0  0  0
 34 35  1  0  0  0  0
 35 36  2  0  0  0  0
 35 40  1  0  0  0  0
 36 37  1  0  0  0  0
 36 41  1  0  0  0  0
 37 38  2  0  0  0  0
 38 39  1  0  0  0  0
 39 40  2  0  0  0  0
 41 42  1  0  0  0  0
  7 38  1  0  0  0  0
M  END
> <score_KierA3>
0.512126

$$$$
suggested molecule #93
 MOE2019            2D

 42 46  0  0  1  0  0  0  0  0999 V2000
    3.4992   -1.2833    0.0000 C   0  0  0  0  0  0  0  0  0  1  0  0
    4.9992   -1.2762    0.0000 C   0  0  0  0  0  0  0  0  0  2  0  0
    5.7430    0.0263    0.0000 C   0  0  0  0  0  0  0  0  0  3  0  0
    4.9869    1.3218    0.0000 C   0  0  0  0  0  0  0  0  0  4  0  0
    3.4870    1.3147    0.0000 C   0  0  0  0  0  0  0  0  0  5  0  0
    2.7431    0.0122    0.0000 C   0  0  0  0  0  0  0  0  0  6  0  0
    1.2431    0.0051    0.0000 C   0  0  0  0  0  0  0  0  0  7  0  0
    0.4870    1.3006    0.0000 C   0  0  0  0  0  0  0  0  0  8  0  0
    1.2309    2.6032    0.0000 C   0  0  0  0  0  0  0  0  0  9  0  0
    0.4748    3.8987    0.0000 O   0  0  0  0  0  0  0  0  0 10  0  0
    2.7309    2.6102    0.0000 O   0  0  0  0  0  0  0  0  0 11  0  0
    3.2016   -1.8043    0.0000 H   0  0  0  0  0  0  0  0  0  0  0  0
    7.2117   -0.2787    0.0000 O   0  0  0  0  0  0  0  0  0  0  0  0
    7.3755   -1.7697    0.0000 C   0  0  1  0  0  0  0  0  0  0  0  0
    6.0081   -2.3862    0.0000 C   0  0  0  0  0  0  0  0  0  0  0  0
    8.6781   -2.5136    0.0000 C   0  0  0  0  0  0  0  0  0  0  0  0
    9.9806   -3.2575    0.0000 C   0  0  0  0  0  0  0  0  0  0  0  0
    9.4220   -1.2110    0.0000 C   0  0  0  0  0  0  0  0  0  0  0  0
    7.9342   -3.8161    0.0000 O   0  0  0  0  0  0  0  0  0  0  0  0
    5.7308    2.6244    0.0000 O   0  0  0  0  0  0  0  0  0  0  0  0
    7.2308    2.6314    0.0000 C   0  0  1  0  0  0  0  0  0  0  0  0
    7.9747    3.9340    0.0000 C   0  0  1  0  0  0  0  0  0  0  0  0
    9.4747    3.9410    0.0000 C   0  0  2  0  0  0  0  0  0  0  0  0
   10.2308    2.6455    0.0000 C   0  0  1  0  0  0  0  0  0  0  0  0
    9.4869    1.3430    0.0000 C   0  0  2  0  0  0  0  0  0  0  0  0
    7.9869    1.3359    0.0000 O   0  0  0  0  0  0  0  0  0  0  0  0
   10.2430    0.0475    0.0000 C   0  0  0  0  0  0  0  0  0  0  0  0
   11.7430    0.0545    0.0000 O   0  0  0  0  0  0  0  0  0  0  0  0
   11.7308    2.6526    0.0000 O   0  0  0  0  0  0  0  0  0  0  0  0
   10.2186    5.2436    0.0000 O   0  0  0  0  0  0  0  0  0  0  0  0
    7.2186    5.2295    0.0000 O   0  0  0  0  0  0  0  0  0  0  0  0
   -0.7130    1.2950    0.0000 H   0  0  0  0  0  0  0  0  0  0  0  0
    3.5114   -3.8813    0.0000 C   0  0  0  0  0  0  0  0  0  0  0  0
    2.7553   -2.5859    0.0000 O   0  0  0  0  0  0  0  0  0  0  0  0
    1.2553   -2.5929    0.0000 C   0  0  0  0  0  0  0  0  0  0  0  0
    0.4992   -1.2974    0.0000 C   0  0  0  0  0  0  0  0  0  0  0  0
   -1.0008   -1.3045    0.0000 C   0  0  0  0  0  0  0  0  0  0  0  0
   -1.7447   -2.6070    0.0000 C   0  0  0  0  0  0  0  0  0  0  0  0
   -0.9886   -3.9025    0.0000 C   0  0  0  0  0  0  0  0  0  0  0  0
    0.5114   -3.8955    0.0000 C   0  0  0  0  0  0  0  0  0  0  0  0
   -1.7569   -0.0090    0.0000 O   0  0  0  0  0  0  0  0  0  0  0  0
   -3.2569   -0.0160    0.0000 C   0  0  0  0  0  0  0  0  0  0  0  0
  1  2  2  0  0  0  0
  1  6  1  0  0  0  0
  2  3  1  0  0  0  0
  3  4  2  0  0  0  0
  4  5  1  0  0  0  0
  5  6  2  0  0  0  0
  5 11  1  0  0  0  0
  6  7  1  0  0  0  0
  7  8  2  0  0  0  0
  8  9  1  0  0  0  0
  9 10  2  0  0  0  0
  9 11  1  0  0  0  0
  1 12  1  0  0  0  0
 13 14  1  0  0  0  0
 14 15  1  0  0  0  0
 14 16  1  6  0  0  0
 16 17  1  0  0  0  0
 16 18  1  0  0  0  0
 16 19  1  0  0  0  0
  2 15  1  0  0  0  0
  3 13  1  0  0  0  0
 21 20  1  6  0  0  0
 21 22  1  0  0  0  0
 21 26  1  0  0  0  0
 22 23  1  0  0  0  0
 22 31  1  1  0  0  0
 23 24  1  0  0  0  0
 23 30  1  6  0  0  0
 24 25  1  0  0  0  0
 24 29  1  1  0  0  0
 25 26  1  0  0  0  0
 25 27  1  6  0  0  0
 27 28  1  0  0  0  0
  4 20  1  0  0  0  0
  8 32  1  0  0  0  0
 33 34  1  0  0  0  0
 34 35  1  0  0  0  0
 35 36  2  0  0  0  0
 35 40  1  0  0  0  0
 36 37  1  0  0  0  0
 37 38  2  0  0  0  0
 37 41  1  0  0  0  0
 38 39  1  0  0  0  0
 39 40  2  0  0  0  0
 41 42  1  0  0  0  0
  7 36  1  0  0  0  0
M  END
> <score_Kier1>
0.517695

$$$$
suggested molecule #94
 MOE2019            2D

 42 46  0  0  1  0  0  0  0  0999 V2000
    3.4992   -1.2833    0.0000 C   0  0  0  0  0  0  0  0  0  1  0  0
    4.9992   -1.2762    0.0000 C   0  0  0  0  0  0  0  0  0  2  0  0
    5.7430    0.0263    0.0000 C   0  0  0  0  0  0  0  0  0  3  0  0
    4.9869    1.3218    0.0000 C   0  0  0  0  0  0  0  0  0  4  0  0
    3.4870    1.3147    0.0000 C   0  0  0  0  0  0  0  0  0  5  0  0
    2.7431    0.0122    0.0000 C   0  0  0  0  0  0  0  0  0  6  0  0
    1.2431    0.0051    0.0000 C   0  0  0  0  0  0  0  0  0  7  0  0
    0.4870    1.3006    0.0000 C   0  0  0  0  0  0  0  0  0  8  0  0
    1.2309    2.6032    0.0000 C   0  0  0  0  0  0  0  0  0  9  0  0
    0.4748    3.8987    0.0000 O   0  0  0  0  0  0  0  0  0 10  0  0
    2.7309    2.6102    0.0000 O   0  0  0  0  0  0  0  0  0 11  0  0
    3.2016   -1.8043    0.0000 H   0  0  0  0  0  0  0  0  0  0  0  0
    7.2117   -0.2787    0.0000 O   0  0  0  0  0  0  0  0  0  0  0  0
    7.3755   -1.7697    0.0000 C   0  0  1  0  0  0  0  0  0  0  0  0
    6.0081   -2.3862    0.0000 C   0  0  0  0  0  0  0  0  0  0  0  0
    8.6781   -2.5136    0.0000 C   0  0  0  0  0  0  0  0  0  0  0  0
    9.9806   -3.2575    0.0000 C   0  0  0  0  0  0  0  0  0  0  0  0
    9.4220   -1.2110    0.0000 C   0  0  0  0  0  0  0  0  0  0  0  0
    7.9342   -3.8161    0.0000 O   0  0  0  0  0  0  0  0  0  0  0  0
    5.7308    2.6244    0.0000 O   0  0  0  0  0  0  0  0  0  0  0  0
    7.2308    2.6314    0.0000 C   0  0  1  0  0  0  0  0  0  0  0  0
    7.9747    3.9340    0.0000 C   0  0  1  0  0  0  0  0  0  0  0  0
    9.4747    3.9410    0.0000 C   0  0  2  0  0  0  0  0  0  0  0  0
   10.2308    2.6455    0.0000 C   0  0  1  0  0  0  0  0  0  0  0  0
    9.4869    1.3430    0.0000 C   0  0  2  0  0  0  0  0  0  0  0  0
    7.9869    1.3359    0.0000 O   0  0  0  0  0  0  0  0  0  0  0  0
   10.2430    0.0475    0.0000 C   0  0  0  0  0  0  0  0  0  0  0  0
   11.7430    0.0545    0.0000 O   0  0  0  0  0  0  0  0  0  0  0  0
   11.7308    2.6526    0.0000 O   0  0  0  0  0  0  0  0  0  0  0  0
   10.2186    5.2436    0.0000 O   0  0  0  0  0  0  0  0  0  0  0  0
    7.2186    5.2295    0.0000 O   0  0  0  0  0  0  0  0  0  0  0  0
   -0.7130    1.2950    0.0000 H   0  0  0  0  0  0  0  0  0  0  0  0
    3.5114   -3.8813    0.0000 C   0  0  0  0  0  0  0  0  0  0  0  0
    2.7553   -2.5859    0.0000 O   0  0  0  0  0  0  0  0  0  0  0  0
    1.2553   -2.5929    0.0000 C   0  0  0  0  0  0  0  0  0  0  0  0
    0.4992   -1.2974    0.0000 C   0  0  0  0  0  0  0  0  0  0  0  0
   -1.0008   -1.3045    0.0000 C   0  0  0  0  0  0  0  0  0  0  0  0
   -1.7447   -2.6070    0.0000 C   0  0  0  0  0  0  0  0  0  0  0  0
   -0.9886   -3.9025    0.0000 C   0  0  0  0  0  0  0  0  0  0  0  0
    0.5114   -3.8955    0.0000 C   0  0  0  0  0  0  0  0  0  0  0  0
   -1.7569   -0.0090    0.0000 O   0  0  0  0  0  0  0  0  0  0  0  0
   -3.2569   -0.0160    0.0000 C   0  0  0  0  0  0  0  0  0  0  0  0
  1  2  2  0  0  0  0
  1  6  1  0  0  0  0
  2  3  1  0  0  0  0
  3  4  2  0  0  0  0
  4  5  1  0  0  0  0
  5  6  2  0  0  0  0
  5 11  1  0  0  0  0
  6  7  1  0  0  0  0
  7  8  2  0  0  0  0
  8  9  1  0  0  0  0
  9 10  2  0  0  0  0
  9 11  1  0  0  0  0
  1 12  1  0  0  0  0
 13 14  1  0  0  0  0
 14 15  1  0  0  0  0
 14 16  1  6  0  0  0
 16 17  1  0  0  0  0
 16 18  1  0  0  0  0
 16 19  1  0  0  0  0
  2 15  1  0  0  0  0
  3 13  1  0  0  0  0
 21 20  1  6  0  0  0
 21 22  1  0  0  0  0
 21 26  1  0  0  0  0
 22 23  1  0  0  0  0
 22 31  1  1  0  0  0
 23 24  1  0  0  0  0
 23 30  1  6  0  0  0
 24 25  1  0  0  0  0
 24 29  1  1  0  0  0
 25 26  1  0  0  0  0
 25 27  1  6  0  0  0
 27 28  1  0  0  0  0
  4 20  1  0  0  0  0
  8 32  1  0  0  0  0
 33 34  1  0  0  0  0
 34 35  1  0  0  0  0
 35 36  2  0  0  0  0
 35 40  1  0  0  0  0
 36 37  1  0  0  0  0
 37 38  2  0  0  0  0
 37 41  1  0  0  0  0
 38 39  1  0  0  0  0
 39 40  2  0  0  0  0
 41 42  1  0  0  0  0
  7 36  1  0  0  0  0
M  END
> <score_Kier3>
0.511569

$$$$
suggested molecule #95
 MOE2019            2D

 42 46  0  0  1  0  0  0  0  0999 V2000
    3.4992   -1.2833    0.0000 C   0  0  0  0  0  0  0  0  0  1  0  0
    4.9992   -1.2762    0.0000 C   0  0  0  0  0  0  0  0  0  2  0  0
    5.7430    0.0263    0.0000 C   0  0  0  0  0  0  0  0  0  3  0  0
    4.9869    1.3218    0.0000 C   0  0  0  0  0  0  0  0  0  4  0  0
    3.4870    1.3147    0.0000 C   0  0  0  0  0  0  0  0  0  5  0  0
    2.7431    0.0122    0.0000 C   0  0  0  0  0  0  0  0  0  6  0  0
    1.2431    0.0051    0.0000 C   0  0  0  0  0  0  0  0  0  7  0  0
    0.4870    1.3006    0.0000 C   0  0  0  0  0  0  0  0  0  8  0  0
    1.2309    2.6032    0.0000 C   0  0  0  0  0  0  0  0  0  9  0  0
    0.4748    3.8987    0.0000 O   0  0  0  0  0  0  0  0  0 10  0  0
    2.7309    2.6102    0.0000 O   0  0  0  0  0  0  0  0  0 11  0  0
    3.2016   -1.8043    0.0000 H   0  0  0  0  0  0  0  0  0  0  0  0
    7.2117   -0.2787    0.0000 O   0  0  0  0  0  0  0  0  0  0  0  0
    7.3755   -1.7697    0.0000 C   0  0  1  0  0  0  0  0  0  0  0  0
    6.0081   -2.3862    0.0000 C   0  0  0  0  0  0  0  0  0  0  0  0
    8.6781   -2.5136    0.0000 C   0  0  0  0  0  0  0  0  0  0  0  0
    9.9806   -3.2575    0.0000 C   0  0  0  0  0  0  0  0  0  0  0  0
    9.4220   -1.2110    0.0000 C   0  0  0  0  0  0  0  0  0  0  0  0
    7.9342   -3.8161    0.0000 O   0  0  0  0  0  0  0  0  0  0  0  0
    5.7308    2.6244    0.0000 O   0  0  0  0  0  0  0  0  0  0  0  0
    7.2308    2.6314    0.0000 C   0  0  1  0  0  0  0  0  0  0  0  0
    7.9747    3.9340    0.0000 C   0  0  1  0  0  0  0  0  0  0  0  0
    9.4747    3.9410    0.0000 C   0  0  2  0  0  0  0  0  0  0  0  0
   10.2308    2.6455    0.0000 C   0  0  1  0  0  0  0  0  0  0  0  0
    9.4869    1.3430    0.0000 C   0  0  2  0  0  0  0  0  0  0  0  0
    7.9869    1.3359    0.0000 O   0  0  0  0  0  0  0  0  0  0  0  0
   10.2430    0.0475    0.0000 C   0  0  0  0  0  0  0  0  0  0  0  0
   11.7430    0.0545    0.0000 O   0  0  0  0  0  0  0  0  0  0  0  0
   11.7308    2.6526    0.0000 O   0  0  0  0  0  0  0  0  0  0  0  0
   10.2186    5.2436    0.0000 O   0  0  0  0  0  0  0  0  0  0  0  0
    7.2186    5.2295    0.0000 O   0  0  0  0  0  0  0  0  0  0  0  0
   -0.7130    1.2950    0.0000 H   0  0  0  0  0  0  0  0  0  0  0  0
    3.5114   -3.8813    0.0000 C   0  0  0  0  0  0  0  0  0  0  0  0
    2.7553   -2.5859    0.0000 O   0  0  0  0  0  0  0  0  0  0  0  0
    1.2553   -2.5929    0.0000 C   0  0  0  0  0  0  0  0  0  0  0  0
    0.4992   -1.2974    0.0000 C   0  0  0  0  0  0  0  0  0  0  0  0
   -1.0008   -1.3045    0.0000 C   0  0  0  0  0  0  0  0  0  0  0  0
   -1.7447   -2.6070    0.0000 C   0  0  0  0  0  0  0  0  0  0  0  0
   -0.9886   -3.9025    0.0000 C   0  0  0  0  0  0  0  0  0  0  0  0
    0.5114   -3.8955    0.0000 C   0  0  0  0  0  0  0  0  0  0  0  0
   -1.7569   -0.0090    0.0000 O   0  0  0  0  0  0  0  0  0  0  0  0
   -3.2569   -0.0160    0.0000 C   0  0  0  0  0  0  0  0  0  0  0  0
  1  2  2  0  0  0  0
  1  6  1  0  0  0  0
  2  3  1  0  0  0  0
  3  4  2  0  0  0  0
  4  5  1  0  0  0  0
  5  6  2  0  0  0  0
  5 11  1  0  0  0  0
  6  7  1  0  0  0  0
  7  8  2  0  0  0  0
  8  9  1  0  0  0  0
  9 10  2  0  0  0  0
  9 11  1  0  0  0  0
  1 12  1  0  0  0  0
 13 14  1  0  0  0  0
 14 15  1  0  0  0  0
 14 16  1  6  0  0  0
 16 17  1  0  0  0  0
 16 18  1  0  0  0  0
 16 19  1  0  0  0  0
  2 15  1  0  0  0  0
  3 13  1  0  0  0  0
 21 20  1  6  0  0  0
 21 22  1  0  0  0  0
 21 26  1  0  0  0  0
 22 23  1  0  0  0  0
 22 31  1  1  0  0  0
 23 24  1  0  0  0  0
 23 30  1  6  0  0  0
 24 25  1  0  0  0  0
 24 29  1  1  0  0  0
 25 26  1  0  0  0  0
 25 27  1  6  0  0  0
 27 28  1  0  0  0  0
  4 20  1  0  0  0  0
  8 32  1  0  0  0  0
 33 34  1  0  0  0  0
 34 35  1  0  0  0  0
 35 36  2  0  0  0  0
 35 40  1  0  0  0  0
 36 37  1  0  0  0  0
 37 38  2  0  0  0  0
 37 41  1  0  0  0  0
 38 39  1  0  0  0  0
 39 40  2  0  0  0  0
 41 42  1  0  0  0  0
  7 36  1  0  0  0  0
M  END
> <score_KierA1>
0.517625

$$$$
suggested molecule #96
 MOE2019            2D

 42 46  0  0  1  0  0  0  0  0999 V2000
    3.4992   -1.2833    0.0000 C   0  0  0  0  0  0  0  0  0  1  0  0
    4.9992   -1.2762    0.0000 C   0  0  0  0  0  0  0  0  0  2  0  0
    5.7430    0.0263    0.0000 C   0  0  0  0  0  0  0  0  0  3  0  0
    4.9869    1.3218    0.0000 C   0  0  0  0  0  0  0  0  0  4  0  0
    3.4870    1.3147    0.0000 C   0  0  0  0  0  0  0  0  0  5  0  0
    2.7431    0.0122    0.0000 C   0  0  0  0  0  0  0  0  0  6  0  0
    1.2431    0.0051    0.0000 C   0  0  0  0  0  0  0  0  0  7  0  0
    0.4870    1.3006    0.0000 C   0  0  0  0  0  0  0  0  0  8  0  0
    1.2309    2.6032    0.0000 C   0  0  0  0  0  0  0  0  0  9  0  0
    0.4748    3.8987    0.0000 O   0  0  0  0  0  0  0  0  0 10  0  0
    2.7309    2.6102    0.0000 O   0  0  0  0  0  0  0  0  0 11  0  0
    3.2016   -1.8043    0.0000 H   0  0  0  0  0  0  0  0  0  0  0  0
    7.2117   -0.2787    0.0000 O   0  0  0  0  0  0  0  0  0  0  0  0
    7.3755   -1.7697    0.0000 C   0  0  1  0  0  0  0  0  0  0  0  0
    6.0081   -2.3862    0.0000 C   0  0  0  0  0  0  0  0  0  0  0  0
    8.6781   -2.5136    0.0000 C   0  0  0  0  0  0  0  0  0  0  0  0
    9.9806   -3.2575    0.0000 C   0  0  0  0  0  0  0  0  0  0  0  0
    9.4220   -1.2110    0.0000 C   0  0  0  0  0  0  0  0  0  0  0  0
    7.9342   -3.8161    0.0000 O   0  0  0  0  0  0  0  0  0  0  0  0
    5.7308    2.6244    0.0000 O   0  0  0  0  0  0  0  0  0  0  0  0
    7.2308    2.6314    0.0000 C   0  0  1  0  0  0  0  0  0  0  0  0
    7.9747    3.9340    0.0000 C   0  0  1  0  0  0  0  0  0  0  0  0
    9.4747    3.9410    0.0000 C   0  0  2  0  0  0  0  0  0  0  0  0
   10.2308    2.6455    0.0000 C   0  0  1  0  0  0  0  0  0  0  0  0
    9.4869    1.3430    0.0000 C   0  0  2  0  0  0  0  0  0  0  0  0
    7.9869    1.3359    0.0000 O   0  0  0  0  0  0  0  0  0  0  0  0
   10.2430    0.0475    0.0000 C   0  0  0  0  0  0  0  0  0  0  0  0
   11.7430    0.0545    0.0000 O   0  0  0  0  0  0  0  0  0  0  0  0
   11.7308    2.6526    0.0000 O   0  0  0  0  0  0  0  0  0  0  0  0
   10.2186    5.2436    0.0000 O   0  0  0  0  0  0  0  0  0  0  0  0
    7.2186    5.2295    0.0000 O   0  0  0  0  0  0  0  0  0  0  0  0
   -0.7130    1.2950    0.0000 H   0  0  0  0  0  0  0  0  0  0  0  0
    3.5114   -3.8813    0.0000 C   0  0  0  0  0  0  0  0  0  0  0  0
    2.7553   -2.5859    0.0000 O   0  0  0  0  0  0  0  0  0  0  0  0
    1.2553   -2.5929    0.0000 C   0  0  0  0  0  0  0  0  0  0  0  0
    0.4992   -1.2974    0.0000 C   0  0  0  0  0  0  0  0  0  0  0  0
   -1.0008   -1.3045    0.0000 C   0  0  0  0  0  0  0  0  0  0  0  0
   -1.7447   -2.6070    0.0000 C   0  0  0  0  0  0  0  0  0  0  0  0
   -0.9886   -3.9025    0.0000 C   0  0  0  0  0  0  0  0  0  0  0  0
    0.5114   -3.8955    0.0000 C   0  0  0  0  0  0  0  0  0  0  0  0
   -1.7569   -0.0090    0.0000 O   0  0  0  0  0  0  0  0  0  0  0  0
   -3.2569   -0.0160    0.0000 C   0  0  0  0  0  0  0  0  0  0  0  0
  1  2  2  0  0  0  0
  1  6  1  0  0  0  0
  2  3  1  0  0  0  0
  3  4  2  0  0  0  0
  4  5  1  0  0  0  0
  5  6  2  0  0  0  0
  5 11  1  0  0  0  0
  6  7  1  0  0  0  0
  7  8  2  0  0  0  0
  8  9  1  0  0  0  0
  9 10  2  0  0  0  0
  9 11  1  0  0  0  0
  1 12  1  0  0  0  0
 13 14  1  0  0  0  0
 14 15  1  0  0  0  0
 14 16  1  6  0  0  0
 16 17  1  0  0  0  0
 16 18  1  0  0  0  0
 16 19  1  0  0  0  0
  2 15  1  0  0  0  0
  3 13  1  0  0  0  0
 21 20  1  6  0  0  0
 21 22  1  0  0  0  0
 21 26  1  0  0  0  0
 22 23  1  0  0  0  0
 22 31  1  1  0  0  0
 23 24  1  0  0  0  0
 23 30  1  6  0  0  0
 24 25  1  0  0  0  0
 24 29  1  1  0  0  0
 25 26  1  0  0  0  0
 25 27  1  6  0  0  0
 27 28  1  0  0  0  0
  4 20  1  0  0  0  0
  8 32  1  0  0  0  0
 33 34  1  0  0  0  0
 34 35  1  0  0  0  0
 35 36  2  0  0  0  0
 35 40  1  0  0  0  0
 36 37  1  0  0  0  0
 37 38  2  0  0  0  0
 37 41  1  0  0  0  0
 38 39  1  0  0  0  0
 39 40  2  0  0  0  0
 41 42  1  0  0  0  0
  7 36  1  0  0  0  0
M  END
> <score_KierA2>
0.516733

$$$$
suggested molecule #97
 MOE2019            2D

 42 46  0  0  1  0  0  0  0  0999 V2000
    3.4992   -1.2833    0.0000 C   0  0  0  0  0  0  0  0  0  1  0  0
    4.9992   -1.2762    0.0000 C   0  0  0  0  0  0  0  0  0  2  0  0
    5.7430    0.0263    0.0000 C   0  0  0  0  0  0  0  0  0  3  0  0
    4.9869    1.3218    0.0000 C   0  0  0  0  0  0  0  0  0  4  0  0
    3.4870    1.3147    0.0000 C   0  0  0  0  0  0  0  0  0  5  0  0
    2.7431    0.0122    0.0000 C   0  0  0  0  0  0  0  0  0  6  0  0
    1.2431    0.0051    0.0000 C   0  0  0  0  0  0  0  0  0  7  0  0
    0.4870    1.3006    0.0000 C   0  0  0  0  0  0  0  0  0  8  0  0
    1.2309    2.6032    0.0000 C   0  0  0  0  0  0  0  0  0  9  0  0
    0.4748    3.8987    0.0000 O   0  0  0  0  0  0  0  0  0 10  0  0
    2.7309    2.6102    0.0000 O   0  0  0  0  0  0  0  0  0 11  0  0
    3.2016   -1.8043    0.0000 H   0  0  0  0  0  0  0  0  0  0  0  0
    7.2117   -0.2787    0.0000 O   0  0  0  0  0  0  0  0  0  0  0  0
    7.3755   -1.7697    0.0000 C   0  0  1  0  0  0  0  0  0  0  0  0
    6.0081   -2.3862    0.0000 C   0  0  0  0  0  0  0  0  0  0  0  0
    8.6781   -2.5136    0.0000 C   0  0  0  0  0  0  0  0  0  0  0  0
    9.9806   -3.2575    0.0000 C   0  0  0  0  0  0  0  0  0  0  0  0
    9.4220   -1.2110    0.0000 C   0  0  0  0  0  0  0  0  0  0  0  0
    7.9342   -3.8161    0.0000 O   0  0  0  0  0  0  0  0  0  0  0  0
    5.7308    2.6244    0.0000 O   0  0  0  0  0  0  0  0  0  0  0  0
    7.2308    2.6314    0.0000 C   0  0  1  0  0  0  0  0  0  0  0  0
    7.9747    3.9340    0.0000 C   0  0  1  0  0  0  0  0  0  0  0  0
    9.4747    3.9410    0.0000 C   0  0  2  0  0  0  0  0  0  0  0  0
   10.2308    2.6455    0.0000 C   0  0  1  0  0  0  0  0  0  0  0  0
    9.4869    1.3430    0.0000 C   0  0  2  0  0  0  0  0  0  0  0  0
    7.9869    1.3359    0.0000 O   0  0  0  0  0  0  0  0  0  0  0  0
   10.2430    0.0475    0.0000 C   0  0  0  0  0  0  0  0  0  0  0  0
   11.7430    0.0545    0.0000 O   0  0  0  0  0  0  0  0  0  0  0  0
   11.7308    2.6526    0.0000 O   0  0  0  0  0  0  0  0  0  0  0  0
   10.2186    5.2436    0.0000 O   0  0  0  0  0  0  0  0  0  0  0  0
    7.2186    5.2295    0.0000 O   0  0  0  0  0  0  0  0  0  0  0  0
   -0.7130    1.2950    0.0000 H   0  0  0  0  0  0  0  0  0  0  0  0
    3.5114   -3.8813    0.0000 C   0  0  0  0  0  0  0  0  0  0  0  0
    2.7553   -2.5859    0.0000 O   0  0  0  0  0  0  0  0  0  0  0  0
    1.2553   -2.5929    0.0000 C   0  0  0  0  0  0  0  0  0  0  0  0
    0.4992   -1.2974    0.0000 C   0  0  0  0  0  0  0  0  0  0  0  0
   -1.0008   -1.3045    0.0000 C   0  0  0  0  0  0  0  0  0  0  0  0
   -1.7447   -2.6070    0.0000 C   0  0  0  0  0  0  0  0  0  0  0  0
   -0.9886   -3.9025    0.0000 C   0  0  0  0  0  0  0  0  0  0  0  0
    0.5114   -3.8955    0.0000 C   0  0  0  0  0  0  0  0  0  0  0  0
   -1.7569   -0.0090    0.0000 O   0  0  0  0  0  0  0  0  0  0  0  0
   -3.2569   -0.0160    0.0000 C   0  0  0  0  0  0  0  0  0  0  0  0
  1  2  2  0  0  0  0
  1  6  1  0  0  0  0
  2  3  1  0  0  0  0
  3  4  2  0  0  0  0
  4  5  1  0  0  0  0
  5  6  2  0  0  0  0
  5 11  1  0  0  0  0
  6  7  1  0  0  0  0
  7  8  2  0  0  0  0
  8  9  1  0  0  0  0
  9 10  2  0  0  0  0
  9 11  1  0  0  0  0
  1 12  1  0  0  0  0
 13 14  1  0  0  0  0
 14 15  1  0  0  0  0
 14 16  1  6  0  0  0
 16 17  1  0  0  0  0
 16 18  1  0  0  0  0
 16 19  1  0  0  0  0
  2 15  1  0  0  0  0
  3 13  1  0  0  0  0
 21 20  1  6  0  0  0
 21 22  1  0  0  0  0
 21 26  1  0  0  0  0
 22 23  1  0  0  0  0
 22 31  1  1  0  0  0
 23 24  1  0  0  0  0
 23 30  1  6  0  0  0
 24 25  1  0  0  0  0
 24 29  1  1  0  0  0
 25 26  1  0  0  0  0
 25 27  1  6  0  0  0
 27 28  1  0  0  0  0
  4 20  1  0  0  0  0
  8 32  1  0  0  0  0
 33 34  1  0  0  0  0
 34 35  1  0  0  0  0
 35 36  2  0  0  0  0
 35 40  1  0  0  0  0
 36 37  1  0  0  0  0
 37 38  2  0  0  0  0
 37 41  1  0  0  0  0
 38 39  1  0  0  0  0
 39 40  2  0  0  0  0
 41 42  1  0  0  0  0
  7 36  1  0  0  0  0
M  END
> <score_KierA3>
0.512184

$$$$
suggested molecule #98
 MOE2019            2D

 42 46  0  0  1  0  0  0  0  0999 V2000
    3.4992   -1.2833    0.0000 C   0  0  0  0  0  0  0  0  0  1  0  0
    4.9992   -1.2762    0.0000 C   0  0  0  0  0  0  0  0  0  2  0  0
    5.7430    0.0263    0.0000 C   0  0  0  0  0  0  0  0  0  3  0  0
    4.9869    1.3218    0.0000 C   0  0  0  0  0  0  0  0  0  4  0  0
    3.4870    1.3147    0.0000 C   0  0  0  0  0  0  0  0  0  5  0  0
    2.7431    0.0122    0.0000 C   0  0  0  0  0  0  0  0  0  6  0  0
    1.2431    0.0051    0.0000 C   0  0  0  0  0  0  0  0  0  7  0  0
    0.4870    1.3006    0.0000 C   0  0  0  0  0  0  0  0  0  8  0  0
    1.2309    2.6032    0.0000 C   0  0  0  0  0  0  0  0  0  9  0  0
    0.4748    3.8987    0.0000 O   0  0  0  0  0  0  0  0  0 10  0  0
    2.7309    2.6102    0.0000 O   0  0  0  0  0  0  0  0  0 11  0  0
    3.2016   -1.8043    0.0000 H   0  0  0  0  0  0  0  0  0  0  0  0
    7.2117   -0.2787    0.0000 O   0  0  0  0  0  0  0  0  0  0  0  0
    7.3755   -1.7697    0.0000 C   0  0  1  0  0  0  0  0  0  0  0  0
    6.0081   -2.3862    0.0000 C   0  0  0  0  0  0  0  0  0  0  0  0
    8.6781   -2.5136    0.0000 C   0  0  0  0  0  0  0  0  0  0  0  0
    9.9806   -3.2575    0.0000 C   0  0  0  0  0  0  0  0  0  0  0  0
    9.4220   -1.2110    0.0000 C   0  0  0  0  0  0  0  0  0  0  0  0
    7.9342   -3.8161    0.0000 O   0  0  0  0  0  0  0  0  0  0  0  0
    5.7308    2.6244    0.0000 O   0  0  0  0  0  0  0  0  0  0  0  0
    7.2308    2.6314    0.0000 C   0  0  1  0  0  0  0  0  0  0  0  0
    7.9747    3.9340    0.0000 C   0  0  1  0  0  0  0  0  0  0  0  0
    9.4747    3.9410    0.0000 C   0  0  2  0  0  0  0  0  0  0  0  0
   10.2308    2.6455    0.0000 C   0  0  1  0  0  0  0  0  0  0  0  0
    9.4869    1.3430    0.0000 C   0  0  2  0  0  0  0  0  0  0  0  0
    7.9869    1.3359    0.0000 O   0  0  0  0  0  0  0  0  0  0  0  0
   10.2430    0.0475    0.0000 C   0  0  0  0  0  0  0  0  0  0  0  0
   11.7430    0.0545    0.0000 O   0  0  0  0  0  0  0  0  0  0  0  0
   11.7308    2.6526    0.0000 O   0  0  0  0  0  0  0  0  0  0  0  0
   10.2186    5.2436    0.0000 O   0  0  0  0  0  0  0  0  0  0  0  0
    7.2186    5.2295    0.0000 O   0  0  0  0  0  0  0  0  0  0  0  0
   -0.7130    1.2950    0.0000 H   0  0  0  0  0  0  0  0  0  0  0  0
    3.5114   -3.8813    0.0000 C   0  0  0  0  0  0  0  0  0  0  0  0
    2.7553   -2.5859    0.0000 O   0  0  0  0  0  0  0  0  0  0  0  0
    1.2553   -2.5929    0.0000 C   0  0  0  0  0  0  0  0  0  0  0  0
    0.4992   -1.2974    0.0000 C   0  0  0  0  0  0  0  0  0  0  0  0
   -1.0008   -1.3045    0.0000 C   0  0  0  0  0  0  0  0  0  0  0  0
   -1.7447   -2.6070    0.0000 C   0  0  0  0  0  0  0  0  0  0  0  0
   -0.9886   -3.9025    0.0000 C   0  0  0  0  0  0  0  0  0  0  0  0
    0.5114   -3.8955    0.0000 C   0  0  0  0  0  0  0  0  0  0  0  0
   -1.7569   -0.0090    0.0000 O   0  0  0  0  0  0  0  0  0  0  0  0
   -3.2569   -0.0160    0.0000 C   0  0  0  0  0  0  0  0  0  0  0  0
  1  2  2  0  0  0  0
  1  6  1  0  0  0  0
  2  3  1  0  0  0  0
  3  4  2  0  0  0  0
  4  5  1  0  0  0  0
  5  6  2  0  0  0  0
  5 11  1  0  0  0  0
  6  7  1  0  0  0  0
  7  8  2  0  0  0  0
  8  9  1  0  0  0  0
  9 10  2  0  0  0  0
  9 11  1  0  0  0  0
  1 12  1  0  0  0  0
 13 14  1  0  0  0  0
 14 15  1  0  0  0  0
 14 16  1  6  0  0  0
 16 17  1  0  0  0  0
 16 18  1  0  0  0  0
 16 19  1  0  0  0  0
  2 15  1  0  0  0  0
  3 13  1  0  0  0  0
 21 20  1  6  0  0  0
 21 22  1  0  0  0  0
 21 26  1  0  0  0  0
 22 23  1  0  0  0  0
 22 31  1  1  0  0  0
 23 24  1  0  0  0  0
 23 30  1  6  0  0  0
 24 25  1  0  0  0  0
 24 29  1  1  0  0  0
 25 26  1  0  0  0  0
 25 27  1  6  0  0  0
 27 28  1  0  0  0  0
  4 20  1  0  0  0  0
  8 32  1  0  0  0  0
 33 34  1  0  0  0  0
 34 35  1  0  0  0  0
 35 36  2  0  0  0  0
 35 40  1  0  0  0  0
 36 37  1  0  0  0  0
 37 38  2  0  0  0  0
 37 41  1  0  0  0  0
 38 39  1  0  0  0  0
 39 40  2  0  0  0  0
 41 42  1  0  0  0  0
  7 36  1  0  0  0  0
M  END
> <score_KierFlex>
0.516368

$$$$
suggested molecule #99
 MOE2019            2D

 40 44  0  0  1  0  0  0  0  0999 V2000
    3.4992   -1.2833    0.0000 C   0  0  0  0  0  0  0  0  0  1  0  0
    4.9992   -1.2762    0.0000 C   0  0  0  0  0  0  0  0  0  2  0  0
    5.7430    0.0263    0.0000 C   0  0  0  0  0  0  0  0  0  3  0  0
    4.9869    1.3218    0.0000 C   0  0  0  0  0  0  0  0  0  4  0  0
    3.4870    1.3147    0.0000 C   0  0  0  0  0  0  0  0  0  5  0  0
    2.7431    0.0122    0.0000 C   0  0  0  0  0  0  0  0  0  6  0  0
    1.2431    0.0051    0.0000 C   0  0  0  0  0  0  0  0  0  7  0  0
    0.4870    1.3006    0.0000 C   0  0  0  0  0  0  0  0  0  8  0  0
    1.2309    2.6032    0.0000 C   0  0  0  0  0  0  0  0  0  9  0  0
    0.4748    3.8987    0.0000 O   0  0  0  0  0  0  0  0  0 10  0  0
    2.7309    2.6102    0.0000 O   0  0  0  0  0  0  0  0  0 11  0  0
    2.9041   -2.3253    0.0000 H   0  0  0  0  0  0  0  0  0  0  0  0
    7.2117   -0.2787    0.0000 O   0  0  0  0  0  0  0  0  0  0  0  0
    7.3755   -1.7697    0.0000 C   0  0  1  0  0  0  0  0  0  0  0  0
    6.0081   -2.3862    0.0000 C   0  0  0  0  0  0  0  0  0  0  0  0
    8.6781   -2.5136    0.0000 C   0  0  0  0  0  0  0  0  0  0  0  0
    7.9342   -3.8161    0.0000 C   0  0  0  0  0  0  0  0  0  0  0  0
    9.4220   -1.2110    0.0000 C   0  0  0  0  0  0  0  0  0  0  0  0
    9.9806   -3.2575    0.0000 O   0  0  0  0  0  0  0  0  0  0  0  0
    5.7308    2.6244    0.0000 O   0  0  0  0  0  0  0  0  0  0  0  0
    7.2308    2.6314    0.0000 C   0  0  1  0  0  0  0  0  0  0  0  0
    7.9747    3.9340    0.0000 C   0  0  1  0  0  0  0  0  0  0  0  0
    9.4747    3.9410    0.0000 C   0  0  2  0  0  0  0  0  0  0  0  0
   10.2308    2.6455    0.0000 C   0  0  1  0  0  0  0  0  0  0  0  0
    9.4869    1.3430    0.0000 C   0  0  2  0  0  0  0  0  0  0  0  0
    7.9869    1.3359    0.0000 O   0  0  0  0  0  0  0  0  0  0  0  0
   10.2430    0.0475    0.0000 C   0  0  0  0  0  0  0  0  0  0  0  0
   11.7430    0.0545    0.0000 O   0  0  0  0  0  0  0  0  0  0  0  0
   11.7308    2.6526    0.0000 O   0  0  0  0  0  0  0  0  0  0  0  0
   10.2186    5.2436    0.0000 O   0  0  0  0  0  0  0  0  0  0  0  0
    7.2186    5.2295    0.0000 O   0  0  0  0  0  0  0  0  0  0  0  0
   -0.7130    1.2950    0.0000 H   0  0  0  0  0  0  0  0  0  0  0  0
   -3.2569   -0.0160    0.0000 C   0  0  0  0  0  0  0  0  0  0  0  0
   -1.7569   -0.0090    0.0000 O   0  0  0  0  0  0  0  0  0  0  0  0
   -1.0008   -1.3045    0.0000 C   0  0  0  0  0  0  0  0  0  0  0  0
   -1.7447   -2.6070    0.0000 C   0  0  0  0  0  0  0  0  0  0  0  0
   -0.9886   -3.9025    0.0000 C   0  0  0  0  0  0  0  0  0  0  0  0
    0.5114   -3.8955    0.0000 C   0  0  0  0  0  0  0  0  0  0  0  0
    1.2553   -2.5929    0.0000 C   0  0  0  0  0  0  0  0  0  0  0  0
    0.4992   -1.2974    0.0000 C   0  0  0  0  0  0  0  0  0  0  0  0
  1  2  2  0  0  0  0
  1  6  1  0  0  0  0
  2  3  1  0  0  0  0
  3  4  2  0  0  0  0
  4  5  1  0  0  0  0
  5  6  2  0  0  0  0
  5 11  1  0  0  0  0
  6  7  1  0  0  0  0
  7  8  2  0  0  0  0
  8  9  1  0  0  0  0
  9 10  2  0  0  0  0
  9 11  1  0  0  0  0
  1 12  1  0  0  0  0
 13 14  1  0  0  0  0
 14 15  1  0  0  0  0
 14 16  1  6  0  0  0
 16 17  1  0  0  0  0
 16 18  1  0  0  0  0
 16 19  1  0  0  0  0
  2 15  1  0  0  0  0
  3 13  1  0  0  0  0
 21 20  1  6  0  0  0
 21 22  1  0  0  0  0
 21 26  1  0  0  0  0
 22 23  1  0  0  0  0
 22 31  1  1  0  0  0
 23 24  1  0  0  0  0
 23 30  1  6  0  0  0
 24 25  1  0  0  0  0
 24 29  1  1  0  0  0
 25 26  1  0  0  0  0
 25 27  1  6  0  0  0
 27 28  1  0  0  0  0
  4 20  1  0  0  0  0
  8 32  1  0  0  0  0
 33 34  1  0  0  0  0
 34 35  1  0  0  0  0
 35 36  1  0  0  0  0
 35 40  2  0  0  0  0
 36 37  2  0  0  0  0
 37 38  1  0  0  0  0
 38 39  2  0  0  0  0
 39 40  1  0  0  0  0
  7 40  1  0  0  0  0
M  END
> <score_Kier1>
0.517743

$$$$
suggested molecule #100
 MOE2019            2D

 40 44  0  0  1  0  0  0  0  0999 V2000
    3.4992   -1.2833    0.0000 C   0  0  0  0  0  0  0  0  0  1  0  0
    4.9992   -1.2762    0.0000 C   0  0  0  0  0  0  0  0  0  2  0  0
    5.7430    0.0263    0.0000 C   0  0  0  0  0  0  0  0  0  3  0  0
    4.9869    1.3218    0.0000 C   0  0  0  0  0  0  0  0  0  4  0  0
    3.4870    1.3147    0.0000 C   0  0  0  0  0  0  0  0  0  5  0  0
    2.7431    0.0122    0.0000 C   0  0  0  0  0  0  0  0  0  6  0  0
    1.2431    0.0051    0.0000 C   0  0  0  0  0  0  0  0  0  7  0  0
    0.4870    1.3006    0.0000 C   0  0  0  0  0  0  0  0  0  8  0  0
    1.2309    2.6032    0.0000 C   0  0  0  0  0  0  0  0  0  9  0  0
    0.4748    3.8987    0.0000 O   0  0  0  0  0  0  0  0  0 10  0  0
    2.7309    2.6102    0.0000 O   0  0  0  0  0  0  0  0  0 11  0  0
    2.9041   -2.3253    0.0000 H   0  0  0  0  0  0  0  0  0  0  0  0
    7.2117   -0.2787    0.0000 O   0  0  0  0  0  0  0  0  0  0  0  0
    7.3755   -1.7697    0.0000 C   0  0  1  0  0  0  0  0  0  0  0  0
    6.0081   -2.3862    0.0000 C   0  0  0  0  0  0  0  0  0  0  0  0
    8.6781   -2.5136    0.0000 C   0  0  0  0  0  0  0  0  0  0  0  0
    7.9342   -3.8161    0.0000 C   0  0  0  0  0  0  0  0  0  0  0  0
    9.4220   -1.2110    0.0000 C   0  0  0  0  0  0  0  0  0  0  0  0
    9.9806   -3.2575    0.0000 O   0  0  0  0  0  0  0  0  0  0  0  0
    5.7308    2.6244    0.0000 O   0  0  0  0  0  0  0  0  0  0  0  0
    7.2308    2.6314    0.0000 C   0  0  1  0  0  0  0  0  0  0  0  0
    7.9747    3.9340    0.0000 C   0  0  1  0  0  0  0  0  0  0  0  0
    9.4747    3.9410    0.0000 C   0  0  2  0  0  0  0  0  0  0  0  0
   10.2308    2.6455    0.0000 C   0  0  1  0  0  0  0  0  0  0  0  0
    9.4869    1.3430    0.0000 C   0  0  2  0  0  0  0  0  0  0  0  0
    7.9869    1.3359    0.0000 O   0  0  0  0  0  0  0  0  0  0  0  0
   10.2430    0.0475    0.0000 C   0  0  0  0  0  0  0  0  0  0  0  0
   11.7430    0.0545    0.0000 O   0  0  0  0  0  0  0  0  0  0  0  0
   11.7308    2.6526    0.0000 O   0  0  0  0  0  0  0  0  0  0  0  0
   10.2186    5.2436    0.0000 O   0  0  0  0  0  0  0  0  0  0  0  0
    7.2186    5.2295    0.0000 O   0  0  0  0  0  0  0  0  0  0  0  0
   -0.7130    1.2950    0.0000 H   0  0  0  0  0  0  0  0  0  0  0  0
   -3.2569   -0.0160    0.0000 C   0  0  0  0  0  0  0  0  0  0  0  0
   -1.7569   -0.0090    0.0000 O   0  0  0  0  0  0  0  0  0  0  0  0
   -1.0008   -1.3045    0.0000 C   0  0  0  0  0  0  0  0  0  0  0  0
   -1.7447   -2.6070    0.0000 C   0  0  0  0  0  0  0  0  0  0  0  0
   -0.9886   -3.9025    0.0000 C   0  0  0  0  0  0  0  0  0  0  0  0
    0.5114   -3.8955    0.0000 C   0  0  0  0  0  0  0  0  0  0  0  0
    1.2553   -2.5929    0.0000 C   0  0  0  0  0  0  0  0  0  0  0  0
    0.4992   -1.2974    0.0000 C   0  0  0  0  0  0  0  0  0  0  0  0
  1  2  2  0  0  0  0
  1  6  1  0  0  0  0
  2  3  1  0  0  0  0
  3  4  2  0  0  0  0
  4  5  1  0  0  0  0
  5  6  2  0  0  0  0
  5 11  1  0  0  0  0
  6  7  1  0  0  0  0
  7  8  2  0  0  0  0
  8  9  1  0  0  0  0
  9 10  2  0  0  0  0
  9 11  1  0  0  0  0
  1 12  1  0  0  0  0
 13 14  1  0  0  0  0
 14 15  1  0  0  0  0
 14 16  1  6  0  0  0
 16 17  1  0  0  0  0
 16 18  1  0  0  0  0
 16 19  1  0  0  0  0
  2 15  1  0  0  0  0
  3 13  1  0  0  0  0
 21 20  1  6  0  0  0
 21 22  1  0  0  0  0
 21 26  1  0  0  0  0
 22 23  1  0  0  0  0
 22 31  1  1  0  0  0
 23 24  1  0  0  0  0
 23 30  1  6  0  0  0
 24 25  1  0  0  0  0
 24 29  1  1  0  0  0
 25 26  1  0  0  0  0
 25 27  1  6  0  0  0
 27 28  1  0  0  0  0
  4 20  1  0  0  0  0
  8 32  1  0  0  0  0
 33 34  1  0  0  0  0
 34 35  1  0  0  0  0
 35 36  1  0  0  0  0
 35 40  2  0  0  0  0
 36 37  2  0  0  0  0
 37 38  1  0  0  0  0
 38 39  2  0  0  0  0
 39 40  1  0  0  0  0
  7 40  1  0  0  0  0
M  END
> <score_Kier2>
0.516479

$$$$
suggested molecule #101
 MOE2019            2D

 40 44  0  0  1  0  0  0  0  0999 V2000
    3.4992   -1.2833    0.0000 C   0  0  0  0  0  0  0  0  0  1  0  0
    4.9992   -1.2762    0.0000 C   0  0  0  0  0  0  0  0  0  2  0  0
    5.7430    0.0263    0.0000 C   0  0  0  0  0  0  0  0  0  3  0  0
    4.9869    1.3218    0.0000 C   0  0  0  0  0  0  0  0  0  4  0  0
    3.4870    1.3147    0.0000 C   0  0  0  0  0  0  0  0  0  5  0  0
    2.7431    0.0122    0.0000 C   0  0  0  0  0  0  0  0  0  6  0  0
    1.2431    0.0051    0.0000 C   0  0  0  0  0  0  0  0  0  7  0  0
    0.4870    1.3006    0.0000 C   0  0  0  0  0  0  0  0  0  8  0  0
    1.2309    2.6032    0.0000 C   0  0  0  0  0  0  0  0  0  9  0  0
    0.4748    3.8987    0.0000 O   0  0  0  0  0  0  0  0  0 10  0  0
    2.7309    2.6102    0.0000 O   0  0  0  0  0  0  0  0  0 11  0  0
    2.9041   -2.3253    0.0000 H   0  0  0  0  0  0  0  0  0  0  0  0
    7.2117   -0.2787    0.0000 O   0  0  0  0  0  0  0  0  0  0  0  0
    7.3755   -1.7697    0.0000 C   0  0  1  0  0  0  0  0  0  0  0  0
    6.0081   -2.3862    0.0000 C   0  0  0  0  0  0  0  0  0  0  0  0
    8.6781   -2.5136    0.0000 C   0  0  0  0  0  0  0  0  0  0  0  0
    7.9342   -3.8161    0.0000 C   0  0  0  0  0  0  0  0  0  0  0  0
    9.4220   -1.2110    0.0000 C   0  0  0  0  0  0  0  0  0  0  0  0
    9.9806   -3.2575    0.0000 O   0  0  0  0  0  0  0  0  0  0  0  0
    5.7308    2.6244    0.0000 O   0  0  0  0  0  0  0  0  0  0  0  0
    7.2308    2.6314    0.0000 C   0  0  1  0  0  0  0  0  0  0  0  0
    7.9747    3.9340    0.0000 C   0  0  1  0  0  0  0  0  0  0  0  0
    9.4747    3.9410    0.0000 C   0  0  2  0  0  0  0  0  0  0  0  0
   10.2308    2.6455    0.0000 C   0  0  1  0  0  0  0  0  0  0  0  0
    9.4869    1.3430    0.0000 C   0  0  2  0  0  0  0  0  0  0  0  0
    7.9869    1.3359    0.0000 O   0  0  0  0  0  0  0  0  0  0  0  0
   10.2430    0.0475    0.0000 C   0  0  0  0  0  0  0  0  0  0  0  0
   11.7430    0.0545    0.0000 O   0  0  0  0  0  0  0  0  0  0  0  0
   11.7308    2.6526    0.0000 O   0  0  0  0  0  0  0  0  0  0  0  0
   10.2186    5.2436    0.0000 O   0  0  0  0  0  0  0  0  0  0  0  0
    7.2186    5.2295    0.0000 O   0  0  0  0  0  0  0  0  0  0  0  0
   -0.7130    1.2950    0.0000 H   0  0  0  0  0  0  0  0  0  0  0  0
   -3.2569   -0.0160    0.0000 C   0  0  0  0  0  0  0  0  0  0  0  0
   -1.7569   -0.0090    0.0000 O   0  0  0  0  0  0  0  0  0  0  0  0
   -1.0008   -1.3045    0.0000 C   0  0  0  0  0  0  0  0  0  0  0  0
   -1.7447   -2.6070    0.0000 C   0  0  0  0  0  0  0  0  0  0  0  0
   -0.9886   -3.9025    0.0000 C   0  0  0  0  0  0  0  0  0  0  0  0
    0.5114   -3.8955    0.0000 C   0  0  0  0  0  0  0  0  0  0  0  0
    1.2553   -2.5929    0.0000 C   0  0  0  0  0  0  0  0  0  0  0  0
    0.4992   -1.2974    0.0000 C   0  0  0  0  0  0  0  0  0  0  0  0
  1  2  2  0  0  0  0
  1  6  1  0  0  0  0
  2  3  1  0  0  0  0
  3  4  2  0  0  0  0
  4  5  1  0  0  0  0
  5  6  2  0  0  0  0
  5 11  1  0  0  0  0
  6  7  1  0  0  0  0
  7  8  2  0  0  0  0
  8  9  1  0  0  0  0
  9 10  2  0  0  0  0
  9 11  1  0  0  0  0
  1 12  1  0  0  0  0
 13 14  1  0  0  0  0
 14 15  1  0  0  0  0
 14 16  1  6  0  0  0
 16 17  1  0  0  0  0
 16 18  1  0  0  0  0
 16 19  1  0  0  0  0
  2 15  1  0  0  0  0
  3 13  1  0  0  0  0
 21 20  1  6  0  0  0
 21 22  1  0  0  0  0
 21 26  1  0  0  0  0
 22 23  1  0  0  0  0
 22 31  1  1  0  0  0
 23 24  1  0  0  0  0
 23 30  1  6  0  0  0
 24 25  1  0  0  0  0
 24 29  1  1  0  0  0
 25 26  1  0  0  0  0
 25 27  1  6  0  0  0
 27 28  1  0  0  0  0
  4 20  1  0  0  0  0
  8 32  1  0  0  0  0
 33 34  1  0  0  0  0
 34 35  1  0  0  0  0
 35 36  1  0  0  0  0
 35 40  2  0  0  0  0
 36 37  2  0  0  0  0
 37 38  1  0  0  0  0
 38 39  2  0  0  0  0
 39 40  1  0  0  0  0
  7 40  1  0  0  0  0
M  END
> <score_Kier3>
0.51161

$$$$
suggested molecule #102
 MOE2019            2D

 40 44  0  0  1  0  0  0  0  0999 V2000
    3.4992   -1.2833    0.0000 C   0  0  0  0  0  0  0  0  0  1  0  0
    4.9992   -1.2762    0.0000 C   0  0  0  0  0  0  0  0  0  2  0  0
    5.7430    0.0263    0.0000 C   0  0  0  0  0  0  0  0  0  3  0  0
    4.9869    1.3218    0.0000 C   0  0  0  0  0  0  0  0  0  4  0  0
    3.4870    1.3147    0.0000 C   0  0  0  0  0  0  0  0  0  5  0  0
    2.7431    0.0122    0.0000 C   0  0  0  0  0  0  0  0  0  6  0  0
    1.2431    0.0051    0.0000 C   0  0  0  0  0  0  0  0  0  7  0  0
    0.4870    1.3006    0.0000 C   0  0  0  0  0  0  0  0  0  8  0  0
    1.2309    2.6032    0.0000 C   0  0  0  0  0  0  0  0  0  9  0  0
    0.4748    3.8987    0.0000 O   0  0  0  0  0  0  0  0  0 10  0  0
    2.7309    2.6102    0.0000 O   0  0  0  0  0  0  0  0  0 11  0  0
    2.9041   -2.3253    0.0000 H   0  0  0  0  0  0  0  0  0  0  0  0
    7.2117   -0.2787    0.0000 O   0  0  0  0  0  0  0  0  0  0  0  0
    7.3755   -1.7697    0.0000 C   0  0  1  0  0  0  0  0  0  0  0  0
    6.0081   -2.3862    0.0000 C   0  0  0  0  0  0  0  0  0  0  0  0
    8.6781   -2.5136    0.0000 C   0  0  0  0  0  0  0  0  0  0  0  0
    7.9342   -3.8161    0.0000 C   0  0  0  0  0  0  0  0  0  0  0  0
    9.4220   -1.2110    0.0000 C   0  0  0  0  0  0  0  0  0  0  0  0
    9.9806   -3.2575    0.0000 O   0  0  0  0  0  0  0  0  0  0  0  0
    5.7308    2.6244    0.0000 O   0  0  0  0  0  0  0  0  0  0  0  0
    7.2308    2.6314    0.0000 C   0  0  1  0  0  0  0  0  0  0  0  0
    7.9747    3.9340    0.0000 C   0  0  1  0  0  0  0  0  0  0  0  0
    9.4747    3.9410    0.0000 C   0  0  2  0  0  0  0  0  0  0  0  0
   10.2308    2.6455    0.0000 C   0  0  1  0  0  0  0  0  0  0  0  0
    9.4869    1.3430    0.0000 C   0  0  2  0  0  0  0  0  0  0  0  0
    7.9869    1.3359    0.0000 O   0  0  0  0  0  0  0  0  0  0  0  0
   10.2430    0.0475    0.0000 C   0  0  0  0  0  0  0  0  0  0  0  0
   11.7430    0.0545    0.0000 O   0  0  0  0  0  0  0  0  0  0  0  0
   11.7308    2.6526    0.0000 O   0  0  0  0  0  0  0  0  0  0  0  0
   10.2186    5.2436    0.0000 O   0  0  0  0  0  0  0  0  0  0  0  0
    7.2186    5.2295    0.0000 O   0  0  0  0  0  0  0  0  0  0  0  0
   -0.7130    1.2950    0.0000 H   0  0  0  0  0  0  0  0  0  0  0  0
   -3.2569   -0.0160    0.0000 C   0  0  0  0  0  0  0  0  0  0  0  0
   -1.7569   -0.0090    0.0000 O   0  0  0  0  0  0  0  0  0  0  0  0
   -1.0008   -1.3045    0.0000 C   0  0  0  0  0  0  0  0  0  0  0  0
   -1.7447   -2.6070    0.0000 C   0  0  0  0  0  0  0  0  0  0  0  0
   -0.9886   -3.9025    0.0000 C   0  0  0  0  0  0  0  0  0  0  0  0
    0.5114   -3.8955    0.0000 C   0  0  0  0  0  0  0  0  0  0  0  0
    1.2553   -2.5929    0.0000 C   0  0  0  0  0  0  0  0  0  0  0  0
    0.4992   -1.2974    0.0000 C   0  0  0  0  0  0  0  0  0  0  0  0
  1  2  2  0  0  0  0
  1  6  1  0  0  0  0
  2  3  1  0  0  0  0
  3  4  2  0  0  0  0
  4  5  1  0  0  0  0
  5  6  2  0  0  0  0
  5 11  1  0  0  0  0
  6  7  1  0  0  0  0
  7  8  2  0  0  0  0
  8  9  1  0  0  0  0
  9 10  2  0  0  0  0
  9 11  1  0  0  0  0
  1 12  1  0  0  0  0
 13 14  1  0  0  0  0
 14 15  1  0  0  0  0
 14 16  1  6  0  0  0
 16 17  1  0  0  0  0
 16 18  1  0  0  0  0
 16 19  1  0  0  0  0
  2 15  1  0  0  0  0
  3 13  1  0  0  0  0
 21 20  1  6  0  0  0
 21 22  1  0  0  0  0
 21 26  1  0  0  0  0
 22 23  1  0  0  0  0
 22 31  1  1  0  0  0
 23 24  1  0  0  0  0
 23 30  1  6  0  0  0
 24 25  1  0  0  0  0
 24 29  1  1  0  0  0
 25 26  1  0  0  0  0
 25 27  1  6  0  0  0
 27 28  1  0  0  0  0
  4 20  1  0  0  0  0
  8 32  1  0  0  0  0
 33 34  1  0  0  0  0
 34 35  1  0  0  0  0
 35 36  1  0  0  0  0
 35 40  2  0  0  0  0
 36 37  2  0  0  0  0
 37 38  1  0  0  0  0
 38 39  2  0  0  0  0
 39 40  1  0  0  0  0
  7 40  1  0  0  0  0
M  END
> <score_KierA1>
0.517688

$$$$
suggested molecule #103
 MOE2019            2D

 40 44  0  0  1  0  0  0  0  0999 V2000
    3.4992   -1.2833    0.0000 C   0  0  0  0  0  0  0  0  0  1  0  0
    4.9992   -1.2762    0.0000 C   0  0  0  0  0  0  0  0  0  2  0  0
    5.7430    0.0263    0.0000 C   0  0  0  0  0  0  0  0  0  3  0  0
    4.9869    1.3218    0.0000 C   0  0  0  0  0  0  0  0  0  4  0  0
    3.4870    1.3147    0.0000 C   0  0  0  0  0  0  0  0  0  5  0  0
    2.7431    0.0122    0.0000 C   0  0  0  0  0  0  0  0  0  6  0  0
    1.2431    0.0051    0.0000 C   0  0  0  0  0  0  0  0  0  7  0  0
    0.4870    1.3006    0.0000 C   0  0  0  0  0  0  0  0  0  8  0  0
    1.2309    2.6032    0.0000 C   0  0  0  0  0  0  0  0  0  9  0  0
    0.4748    3.8987    0.0000 O   0  0  0  0  0  0  0  0  0 10  0  0
    2.7309    2.6102    0.0000 O   0  0  0  0  0  0  0  0  0 11  0  0
    2.9041   -2.3253    0.0000 H   0  0  0  0  0  0  0  0  0  0  0  0
    7.2117   -0.2787    0.0000 O   0  0  0  0  0  0  0  0  0  0  0  0
    7.3755   -1.7697    0.0000 C   0  0  1  0  0  0  0  0  0  0  0  0
    6.0081   -2.3862    0.0000 C   0  0  0  0  0  0  0  0  0  0  0  0
    8.6781   -2.5136    0.0000 C   0  0  0  0  0  0  0  0  0  0  0  0
    7.9342   -3.8161    0.0000 C   0  0  0  0  0  0  0  0  0  0  0  0
    9.4220   -1.2110    0.0000 C   0  0  0  0  0  0  0  0  0  0  0  0
    9.9806   -3.2575    0.0000 O   0  0  0  0  0  0  0  0  0  0  0  0
    5.7308    2.6244    0.0000 O   0  0  0  0  0  0  0  0  0  0  0  0
    7.2308    2.6314    0.0000 C   0  0  1  0  0  0  0  0  0  0  0  0
    7.9747    3.9340    0.0000 C   0  0  1  0  0  0  0  0  0  0  0  0
    9.4747    3.9410    0.0000 C   0  0  2  0  0  0  0  0  0  0  0  0
   10.2308    2.6455    0.0000 C   0  0  1  0  0  0  0  0  0  0  0  0
    9.4869    1.3430    0.0000 C   0  0  2  0  0  0  0  0  0  0  0  0
    7.9869    1.3359    0.0000 O   0  0  0  0  0  0  0  0  0  0  0  0
   10.2430    0.0475    0.0000 C   0  0  0  0  0  0  0  0  0  0  0  0
   11.7430    0.0545    0.0000 O   0  0  0  0  0  0  0  0  0  0  0  0
   11.7308    2.6526    0.0000 O   0  0  0  0  0  0  0  0  0  0  0  0
   10.2186    5.2436    0.0000 O   0  0  0  0  0  0  0  0  0  0  0  0
    7.2186    5.2295    0.0000 O   0  0  0  0  0  0  0  0  0  0  0  0
   -0.7130    1.2950    0.0000 H   0  0  0  0  0  0  0  0  0  0  0  0
   -3.2569   -0.0160    0.0000 C   0  0  0  0  0  0  0  0  0  0  0  0
   -1.7569   -0.0090    0.0000 O   0  0  0  0  0  0  0  0  0  0  0  0
   -1.0008   -1.3045    0.0000 C   0  0  0  0  0  0  0  0  0  0  0  0
   -1.7447   -2.6070    0.0000 C   0  0  0  0  0  0  0  0  0  0  0  0
   -0.9886   -3.9025    0.0000 C   0  0  0  0  0  0  0  0  0  0  0  0
    0.5114   -3.8955    0.0000 C   0  0  0  0  0  0  0  0  0  0  0  0
    1.2553   -2.5929    0.0000 C   0  0  0  0  0  0  0  0  0  0  0  0
    0.4992   -1.2974    0.0000 C   0  0  0  0  0  0  0  0  0  0  0  0
  1  2  2  0  0  0  0
  1  6  1  0  0  0  0
  2  3  1  0  0  0  0
  3  4  2  0  0  0  0
  4  5  1  0  0  0  0
  5  6  2  0  0  0  0
  5 11  1  0  0  0  0
  6  7  1  0  0  0  0
  7  8  2  0  0  0  0
  8  9  1  0  0  0  0
  9 10  2  0  0  0  0
  9 11  1  0  0  0  0
  1 12  1  0  0  0  0
 13 14  1  0  0  0  0
 14 15  1  0  0  0  0
 14 16  1  6  0  0  0
 16 17  1  0  0  0  0
 16 18  1  0  0  0  0
 16 19  1  0  0  0  0
  2 15  1  0  0  0  0
  3 13  1  0  0  0  0
 21 20  1  6  0  0  0
 21 22  1  0  0  0  0
 21 26  1  0  0  0  0
 22 23  1  0  0  0  0
 22 31  1  1  0  0  0
 23 24  1  0  0  0  0
 23 30  1  6  0  0  0
 24 25  1  0  0  0  0
 24 29  1  1  0  0  0
 25 26  1  0  0  0  0
 25 27  1  6  0  0  0
 27 28  1  0  0  0  0
  4 20  1  0  0  0  0
  8 32  1  0  0  0  0
 33 34  1  0  0  0  0
 34 35  1  0  0  0  0
 35 36  1  0  0  0  0
 35 40  2  0  0  0  0
 36 37  2  0  0  0  0
 37 38  1  0  0  0  0
 38 39  2  0  0  0  0
 39 40  1  0  0  0  0
  7 40  1  0  0  0  0
M  END
> <score_KierA2>
0.516781

$$$$
suggested molecule #104
 MOE2019            2D

 40 44  0  0  1  0  0  0  0  0999 V2000
    3.4992   -1.2833    0.0000 C   0  0  0  0  0  0  0  0  0  1  0  0
    4.9992   -1.2762    0.0000 C   0  0  0  0  0  0  0  0  0  2  0  0
    5.7430    0.0263    0.0000 C   0  0  0  0  0  0  0  0  0  3  0  0
    4.9869    1.3218    0.0000 C   0  0  0  0  0  0  0  0  0  4  0  0
    3.4870    1.3147    0.0000 C   0  0  0  0  0  0  0  0  0  5  0  0
    2.7431    0.0122    0.0000 C   0  0  0  0  0  0  0  0  0  6  0  0
    1.2431    0.0051    0.0000 C   0  0  0  0  0  0  0  0  0  7  0  0
    0.4870    1.3006    0.0000 C   0  0  0  0  0  0  0  0  0  8  0  0
    1.2309    2.6032    0.0000 C   0  0  0  0  0  0  0  0  0  9  0  0
    0.4748    3.8987    0.0000 O   0  0  0  0  0  0  0  0  0 10  0  0
    2.7309    2.6102    0.0000 O   0  0  0  0  0  0  0  0  0 11  0  0
    2.9041   -2.3253    0.0000 H   0  0  0  0  0  0  0  0  0  0  0  0
    7.2117   -0.2787    0.0000 O   0  0  0  0  0  0  0  0  0  0  0  0
    7.3755   -1.7697    0.0000 C   0  0  1  0  0  0  0  0  0  0  0  0
    6.0081   -2.3862    0.0000 C   0  0  0  0  0  0  0  0  0  0  0  0
    8.6781   -2.5136    0.0000 C   0  0  0  0  0  0  0  0  0  0  0  0
    7.9342   -3.8161    0.0000 C   0  0  0  0  0  0  0  0  0  0  0  0
    9.4220   -1.2110    0.0000 C   0  0  0  0  0  0  0  0  0  0  0  0
    9.9806   -3.2575    0.0000 O   0  0  0  0  0  0  0  0  0  0  0  0
    5.7308    2.6244    0.0000 O   0  0  0  0  0  0  0  0  0  0  0  0
    7.2308    2.6314    0.0000 C   0  0  1  0  0  0  0  0  0  0  0  0
    7.9747    3.9340    0.0000 C   0  0  1  0  0  0  0  0  0  0  0  0
    9.4747    3.9410    0.0000 C   0  0  2  0  0  0  0  0  0  0  0  0
   10.2308    2.6455    0.0000 C   0  0  1  0  0  0  0  0  0  0  0  0
    9.4869    1.3430    0.0000 C   0  0  2  0  0  0  0  0  0  0  0  0
    7.9869    1.3359    0.0000 O   0  0  0  0  0  0  0  0  0  0  0  0
   10.2430    0.0475    0.0000 C   0  0  0  0  0  0  0  0  0  0  0  0
   11.7430    0.0545    0.0000 O   0  0  0  0  0  0  0  0  0  0  0  0
   11.7308    2.6526    0.0000 O   0  0  0  0  0  0  0  0  0  0  0  0
   10.2186    5.2436    0.0000 O   0  0  0  0  0  0  0  0  0  0  0  0
    7.2186    5.2295    0.0000 O   0  0  0  0  0  0  0  0  0  0  0  0
   -0.7130    1.2950    0.0000 H   0  0  0  0  0  0  0  0  0  0  0  0
   -3.2569   -0.0160    0.0000 C   0  0  0  0  0  0  0  0  0  0  0  0
   -1.7569   -0.0090    0.0000 O   0  0  0  0  0  0  0  0  0  0  0  0
   -1.0008   -1.3045    0.0000 C   0  0  0  0  0  0  0  0  0  0  0  0
   -1.7447   -2.6070    0.0000 C   0  0  0  0  0  0  0  0  0  0  0  0
   -0.9886   -3.9025    0.0000 C   0  0  0  0  0  0  0  0  0  0  0  0
    0.5114   -3.8955    0.0000 C   0  0  0  0  0  0  0  0  0  0  0  0
    1.2553   -2.5929    0.0000 C   0  0  0  0  0  0  0  0  0  0  0  0
    0.4992   -1.2974    0.0000 C   0  0  0  0  0  0  0  0  0  0  0  0
  1  2  2  0  0  0  0
  1  6  1  0  0  0  0
  2  3  1  0  0  0  0
  3  4  2  0  0  0  0
  4  5  1  0  0  0  0
  5  6  2  0  0  0  0
  5 11  1  0  0  0  0
  6  7  1  0  0  0  0
  7  8  2  0  0  0  0
  8  9  1  0  0  0  0
  9 10  2  0  0  0  0
  9 11  1  0  0  0  0
  1 12  1  0  0  0  0
 13 14  1  0  0  0  0
 14 15  1  0  0  0  0
 14 16  1  6  0  0  0
 16 17  1  0  0  0  0
 16 18  1  0  0  0  0
 16 19  1  0  0  0  0
  2 15  1  0  0  0  0
  3 13  1  0  0  0  0
 21 20  1  6  0  0  0
 21 22  1  0  0  0  0
 21 26  1  0  0  0  0
 22 23  1  0  0  0  0
 22 31  1  1  0  0  0
 23 24  1  0  0  0  0
 23 30  1  6  0  0  0
 24 25  1  0  0  0  0
 24 29  1  1  0  0  0
 25 26  1  0  0  0  0
 25 27  1  6  0  0  0
 27 28  1  0  0  0  0
  4 20  1  0  0  0  0
  8 32  1  0  0  0  0
 33 34  1  0  0  0  0
 34 35  1  0  0  0  0
 35 36  1  0  0  0  0
 35 40  2  0  0  0  0
 36 37  2  0  0  0  0
 37 38  1  0  0  0  0
 38 39  2  0  0  0  0
 39 40  1  0  0  0  0
  7 40  1  0  0  0  0
M  END
> <score_KierA3>
0.51224

$$$$
suggested molecule #105
 MOE2019            2D

 40 44  0  0  1  0  0  0  0  0999 V2000
    3.4992   -1.2833    0.0000 C   0  0  0  0  0  0  0  0  0  1  0  0
    4.9992   -1.2762    0.0000 C   0  0  0  0  0  0  0  0  0  2  0  0
    5.7430    0.0263    0.0000 C   0  0  0  0  0  0  0  0  0  3  0  0
    4.9869    1.3218    0.0000 C   0  0  0  0  0  0  0  0  0  4  0  0
    3.4870    1.3147    0.0000 C   0  0  0  0  0  0  0  0  0  5  0  0
    2.7431    0.0122    0.0000 C   0  0  0  0  0  0  0  0  0  6  0  0
    1.2431    0.0051    0.0000 C   0  0  0  0  0  0  0  0  0  7  0  0
    0.4870    1.3006    0.0000 C   0  0  0  0  0  0  0  0  0  8  0  0
    1.2309    2.6032    0.0000 C   0  0  0  0  0  0  0  0  0  9  0  0
    0.4748    3.8987    0.0000 O   0  0  0  0  0  0  0  0  0 10  0  0
    2.7309    2.6102    0.0000 O   0  0  0  0  0  0  0  0  0 11  0  0
    2.9041   -2.3253    0.0000 H   0  0  0  0  0  0  0  0  0  0  0  0
    7.2117   -0.2787    0.0000 O   0  0  0  0  0  0  0  0  0  0  0  0
    7.3755   -1.7697    0.0000 C   0  0  1  0  0  0  0  0  0  0  0  0
    6.0081   -2.3862    0.0000 C   0  0  0  0  0  0  0  0  0  0  0  0
    8.6781   -2.5136    0.0000 C   0  0  0  0  0  0  0  0  0  0  0  0
    7.9342   -3.8161    0.0000 C   0  0  0  0  0  0  0  0  0  0  0  0
    9.4220   -1.2110    0.0000 C   0  0  0  0  0  0  0  0  0  0  0  0
    9.9806   -3.2575    0.0000 O   0  0  0  0  0  0  0  0  0  0  0  0
    5.7308    2.6244    0.0000 O   0  0  0  0  0  0  0  0  0  0  0  0
    7.2308    2.6314    0.0000 C   0  0  1  0  0  0  0  0  0  0  0  0
    7.9747    3.9340    0.0000 C   0  0  1  0  0  0  0  0  0  0  0  0
    9.4747    3.9410    0.0000 C   0  0  2  0  0  0  0  0  0  0  0  0
   10.2308    2.6455    0.0000 C   0  0  1  0  0  0  0  0  0  0  0  0
    9.4869    1.3430    0.0000 C   0  0  2  0  0  0  0  0  0  0  0  0
    7.9869    1.3359    0.0000 O   0  0  0  0  0  0  0  0  0  0  0  0
   10.2430    0.0475    0.0000 C   0  0  0  0  0  0  0  0  0  0  0  0
   11.7430    0.0545    0.0000 O   0  0  0  0  0  0  0  0  0  0  0  0
   11.7308    2.6526    0.0000 O   0  0  0  0  0  0  0  0  0  0  0  0
   10.2186    5.2436    0.0000 O   0  0  0  0  0  0  0  0  0  0  0  0
    7.2186    5.2295    0.0000 O   0  0  0  0  0  0  0  0  0  0  0  0
   -0.7130    1.2950    0.0000 H   0  0  0  0  0  0  0  0  0  0  0  0
   -3.2569   -0.0160    0.0000 C   0  0  0  0  0  0  0  0  0  0  0  0
   -1.7569   -0.0090    0.0000 O   0  0  0  0  0  0  0  0  0  0  0  0
   -1.0008   -1.3045    0.0000 C   0  0  0  0  0  0  0  0  0  0  0  0
   -1.7447   -2.6070    0.0000 C   0  0  0  0  0  0  0  0  0  0  0  0
   -0.9886   -3.9025    0.0000 C   0  0  0  0  0  0  0  0  0  0  0  0
    0.5114   -3.8955    0.0000 C   0  0  0  0  0  0  0  0  0  0  0  0
    1.2553   -2.5929    0.0000 C   0  0  0  0  0  0  0  0  0  0  0  0
    0.4992   -1.2974    0.0000 C   0  0  0  0  0  0  0  0  0  0  0  0
  1  2  2  0  0  0  0
  1  6  1  0  0  0  0
  2  3  1  0  0  0  0
  3  4  2  0  0  0  0
  4  5  1  0  0  0  0
  5  6  2  0  0  0  0
  5 11  1  0  0  0  0
  6  7  1  0  0  0  0
  7  8  2  0  0  0  0
  8  9  1  0  0  0  0
  9 10  2  0  0  0  0
  9 11  1  0  0  0  0
  1 12  1  0  0  0  0
 13 14  1  0  0  0  0
 14 15  1  0  0  0  0
 14 16  1  6  0  0  0
 16 17  1  0  0  0  0
 16 18  1  0  0  0  0
 16 19  1  0  0  0  0
  2 15  1  0  0  0  0
  3 13  1  0  0  0  0
 21 20  1  6  0  0  0
 21 22  1  0  0  0  0
 21 26  1  0  0  0  0
 22 23  1  0  0  0  0
 22 31  1  1  0  0  0
 23 24  1  0  0  0  0
 23 30  1  6  0  0  0
 24 25  1  0  0  0  0
 24 29  1  1  0  0  0
 25 26  1  0  0  0  0
 25 27  1  6  0  0  0
 27 28  1  0  0  0  0
  4 20  1  0  0  0  0
  8 32  1  0  0  0  0
 33 34  1  0  0  0  0
 34 35  1  0  0  0  0
 35 36  1  0  0  0  0
 35 40  2  0  0  0  0
 36 37  2  0  0  0  0
 37 38  1  0  0  0  0
 38 39  2  0  0  0  0
 39 40  1  0  0  0  0
  7 40  1  0  0  0  0
M  END
> <score_KierFlex>
0.516437

$$$$
suggested molecule #106
 MOE2019            2D

 41 45  0  0  1  0  0  0  0  0999 V2000
    3.4992   -1.2833    0.0000 C   0  0  0  0  0  0  0  0  0  1  0  0
    4.9992   -1.2762    0.0000 C   0  0  0  0  0  0  0  0  0  2  0  0
    5.7430    0.0263    0.0000 C   0  0  0  0  0  0  0  0  0  3  0  0
    4.9869    1.3218    0.0000 C   0  0  0  0  0  0  0  0  0  4  0  0
    3.4870    1.3147    0.0000 C   0  0  0  0  0  0  0  0  0  5  0  0
    2.7431    0.0122    0.0000 C   0  0  0  0  0  0  0  0  0  6  0  0
    1.2431    0.0051    0.0000 C   0  0  0  0  0  0  0  0  0  7  0  0
    0.4870    1.3006    0.0000 C   0  0  0  0  0  0  0  0  0  8  0  0
    1.2309    2.6032    0.0000 C   0  0  0  0  0  0  0  0  0  9  0  0
    0.4748    3.8987    0.0000 O   0  0  0  0  0  0  0  0  0 10  0  0
    2.7309    2.6102    0.0000 O   0  0  0  0  0  0  0  0  0 11  0  0
    3.2016   -1.8043    0.0000 H   0  0  0  0  0  0  0  0  0  0  0  0
    7.2117   -0.2787    0.0000 O   0  0  0  0  0  0  0  0  0  0  0  0
    7.3755   -1.7697    0.0000 C   0  0  1  0  0  0  0  0  0  0  0  0
    6.0081   -2.3862    0.0000 C   0  0  0  0  0  0  0  0  0  0  0  0
    8.6781   -2.5136    0.0000 C   0  0  0  0  0  0  0  0  0  0  0  0
    7.9342   -3.8161    0.0000 C   0  0  0  0  0  0  0  0  0  0  0  0
    9.4220   -1.2110    0.0000 C   0  0  0  0  0  0  0  0  0  0  0  0
    9.9806   -3.2575    0.0000 O   0  0  0  0  0  0  0  0  0  0  0  0
    5.7308    2.6244    0.0000 O   0  0  0  0  0  0  0  0  0  0  0  0
    7.2308    2.6314    0.0000 C   0  0  1  0  0  0  0  0  0  0  0  0
    7.9747    3.9340    0.0000 C   0  0  1  0  0  0  0  0  0  0  0  0
    9.4747    3.9410    0.0000 C   0  0  2  0  0  0  0  0  0  0  0  0
   10.2308    2.6455    0.0000 C   0  0  1  0  0  0  0  0  0  0  0  0
    9.4869    1.3430    0.0000 C   0  0  2  0  0  0  0  0  0  0  0  0
    7.9869    1.3359    0.0000 O   0  0  0  0  0  0  0  0  0  0  0  0
   10.2430    0.0475    0.0000 C   0  0  0  0  0  0  0  0  0  0  0  0
   11.7430    0.0545    0.0000 O   0  0  0  0  0  0  0  0  0  0  0  0
   11.7308    2.6526    0.0000 O   0  0  0  0  0  0  0  0  0  0  0  0
   10.2186    5.2436    0.0000 O   0  0  0  0  0  0  0  0  0  0  0  0
    7.2186    5.2295    0.0000 O   0  0  0  0  0  0  0  0  0  0  0  0
   -0.7130    1.2950    0.0000 H   0  0  0  0  0  0  0  0  0  0  0  0
   -3.2569   -0.0160    0.0000 C   0  0  0  0  0  0  0  0  0  0  0  0
   -1.7569   -0.0090    0.0000 O   0  0  0  0  0  0  0  0  0  0  0  0
   -1.0008   -1.3045    0.0000 C   0  0  0  0  0  0  0  0  0  0  0  0
   -1.7447   -2.6070    0.0000 C   0  0  0  0  0  0  0  0  0  0  0  0
   -0.9886   -3.9025    0.0000 C   0  0  0  0  0  0  0  0  0  0  0  0
    0.5114   -3.8955    0.0000 C   0  0  0  0  0  0  0  0  0  0  0  0
    1.2553   -2.5929    0.0000 C   0  0  0  0  0  0  0  0  0  0  0  0
    0.4992   -1.2974    0.0000 C   0  0  0  0  0  0  0  0  0  0  0  0
    2.7553   -2.5859    0.0000 O   0  0  0  0  0  0  0  0  0  0  0  0
  1  2  2  0  0  0  0
  1  6  1  0  0  0  0
  2  3  1  0  0  0  0
  3  4  2  0  0  0  0
  4  5  1  0  0  0  0
  5  6  2  0  0  0  0
  5 11  1  0  0  0  0
  6  7  1  0  0  0  0
  7  8  2  0  0  0  0
  8  9  1  0  0  0  0
  9 10  2  0  0  0  0
  9 11  1  0  0  0  0
  1 12  1  0  0  0  0
 13 14  1  0  0  0  0
 14 15  1  0  0  0  0
 14 16  1  6  0  0  0
 16 17  1  0  0  0  0
 16 18  1  0  0  0  0
 16 19  1  0  0  0  0
  2 15  1  0  0  0  0
  3 13  1  0  0  0  0
 21 20  1  6  0  0  0
 21 22  1  0  0  0  0
 21 26  1  0  0  0  0
 22 23  1  0  0  0  0
 22 31  1  1  0  0  0
 23 24  1  0  0  0  0
 23 30  1  6  0  0  0
 24 25  1  0  0  0  0
 24 29  1  1  0  0  0
 25 26  1  0  0  0  0
 25 27  1  6  0  0  0
 27 28  1  0  0  0  0
  4 20  1  0  0  0  0
  8 32  1  0  0  0  0
 33 34  1  0  0  0  0
 34 35  1  0  0  0  0
 35 36  1  0  0  0  0
 35 40  2  0  0  0  0
 36 37  2  0  0  0  0
 37 38  1  0  0  0  0
 38 39  2  0  0  0  0
 39 40  1  0  0  0  0
 39 41  1  0  0  0  0
  7 40  1  0  0  0  0
M  END
> <score_Kier3>
0.511567

$$$$
suggested molecule #107
 MOE2019            2D

 41 45  0  0  1  0  0  0  0  0999 V2000
    3.4992   -1.2833    0.0000 C   0  0  0  0  0  0  0  0  0  1  0  0
    4.9992   -1.2762    0.0000 C   0  0  0  0  0  0  0  0  0  2  0  0
    5.7430    0.0263    0.0000 C   0  0  0  0  0  0  0  0  0  3  0  0
    4.9869    1.3218    0.0000 C   0  0  0  0  0  0  0  0  0  4  0  0
    3.4870    1.3147    0.0000 C   0  0  0  0  0  0  0  0  0  5  0  0
    2.7431    0.0122    0.0000 C   0  0  0  0  0  0  0  0  0  6  0  0
    1.2431    0.0051    0.0000 C   0  0  0  0  0  0  0  0  0  7  0  0
    0.4870    1.3006    0.0000 C   0  0  0  0  0  0  0  0  0  8  0  0
    1.2309    2.6032    0.0000 C   0  0  0  0  0  0  0  0  0  9  0  0
    0.4748    3.8987    0.0000 O   0  0  0  0  0  0  0  0  0 10  0  0
    2.7309    2.6102    0.0000 O   0  0  0  0  0  0  0  0  0 11  0  0
    3.2016   -1.8043    0.0000 H   0  0  0  0  0  0  0  0  0  0  0  0
    7.2117   -0.2787    0.0000 O   0  0  0  0  0  0  0  0  0  0  0  0
    7.3755   -1.7697    0.0000 C   0  0  1  0  0  0  0  0  0  0  0  0
    6.0081   -2.3862    0.0000 C   0  0  0  0  0  0  0  0  0  0  0  0
    8.6781   -2.5136    0.0000 C   0  0  0  0  0  0  0  0  0  0  0  0
    7.9342   -3.8161    0.0000 C   0  0  0  0  0  0  0  0  0  0  0  0
    9.4220   -1.2110    0.0000 C   0  0  0  0  0  0  0  0  0  0  0  0
    9.9806   -3.2575    0.0000 O   0  0  0  0  0  0  0  0  0  0  0  0
    5.7308    2.6244    0.0000 O   0  0  0  0  0  0  0  0  0  0  0  0
    7.2308    2.6314    0.0000 C   0  0  1  0  0  0  0  0  0  0  0  0
    7.9747    3.9340    0.0000 C   0  0  1  0  0  0  0  0  0  0  0  0
    9.4747    3.9410    0.0000 C   0  0  2  0  0  0  0  0  0  0  0  0
   10.2308    2.6455    0.0000 C   0  0  1  0  0  0  0  0  0  0  0  0
    9.4869    1.3430    0.0000 C   0  0  2  0  0  0  0  0  0  0  0  0
    7.9869    1.3359    0.0000 O   0  0  0  0  0  0  0  0  0  0  0  0
   10.2430    0.0475    0.0000 C   0  0  0  0  0  0  0  0  0  0  0  0
   11.7430    0.0545    0.0000 O   0  0  0  0  0  0  0  0  0  0  0  0
   11.7308    2.6526    0.0000 O   0  0  0  0  0  0  0  0  0  0  0  0
   10.2186    5.2436    0.0000 O   0  0  0  0  0  0  0  0  0  0  0  0
    7.2186    5.2295    0.0000 O   0  0  0  0  0  0  0  0  0  0  0  0
   -0.7130    1.2950    0.0000 H   0  0  0  0  0  0  0  0  0  0  0  0
   -3.2569   -0.0160    0.0000 C   0  0  0  0  0  0  0  0  0  0  0  0
   -1.7569   -0.0090    0.0000 O   0  0  0  0  0  0  0  0  0  0  0  0
   -1.0008   -1.3045    0.0000 C   0  0  0  0  0  0  0  0  0  0  0  0
   -1.7447   -2.6070    0.0000 C   0  0  0  0  0  0  0  0  0  0  0  0
   -0.9886   -3.9025    0.0000 C   0  0  0  0  0  0  0  0  0  0  0  0
    0.5114   -3.8955    0.0000 C   0  0  0  0  0  0  0  0  0  0  0  0
    1.2553   -2.5929    0.0000 C   0  0  0  0  0  0  0  0  0  0  0  0
    0.4992   -1.2974    0.0000 C   0  0  0  0  0  0  0  0  0  0  0  0
    2.7553   -2.5859    0.0000 O   0  0  0  0  0  0  0  0  0  0  0  0
  1  2  2  0  0  0  0
  1  6  1  0  0  0  0
  2  3  1  0  0  0  0
  3  4  2  0  0  0  0
  4  5  1  0  0  0  0
  5  6  2  0  0  0  0
  5 11  1  0  0  0  0
  6  7  1  0  0  0  0
  7  8  2  0  0  0  0
  8  9  1  0  0  0  0
  9 10  2  0  0  0  0
  9 11  1  0  0  0  0
  1 12  1  0  0  0  0
 13 14  1  0  0  0  0
 14 15  1  0  0  0  0
 14 16  1  6  0  0  0
 16 17  1  0  0  0  0
 16 18  1  0  0  0  0
 16 19  1  0  0  0  0
  2 15  1  0  0  0  0
  3 13  1  0  0  0  0
 21 20  1  6  0  0  0
 21 22  1  0  0  0  0
 21 26  1  0  0  0  0
 22 23  1  0  0  0  0
 22 31  1  1  0  0  0
 23 24  1  0  0  0  0
 23 30  1  6  0  0  0
 24 25  1  0  0  0  0
 24 29  1  1  0  0  0
 25 26  1  0  0  0  0
 25 27  1  6  0  0  0
 27 28  1  0  0  0  0
  4 20  1  0  0  0  0
  8 32  1  0  0  0  0
 33 34  1  0  0  0  0
 34 35  1  0  0  0  0
 35 36  1  0  0  0  0
 35 40  2  0  0  0  0
 36 37  2  0  0  0  0
 37 38  1  0  0  0  0
 38 39  2  0  0  0  0
 39 40  1  0  0  0  0
 39 41  1  0  0  0  0
  7 40  1  0  0  0  0
M  END
> <score_KierA1>
0.517612

$$$$
suggested molecule #108
 MOE2019            2D

 41 45  0  0  1  0  0  0  0  0999 V2000
    3.4992   -1.2833    0.0000 C   0  0  0  0  0  0  0  0  0  1  0  0
    4.9992   -1.2762    0.0000 C   0  0  0  0  0  0  0  0  0  2  0  0
    5.7430    0.0263    0.0000 C   0  0  0  0  0  0  0  0  0  3  0  0
    4.9869    1.3218    0.0000 C   0  0  0  0  0  0  0  0  0  4  0  0
    3.4870    1.3147    0.0000 C   0  0  0  0  0  0  0  0  0  5  0  0
    2.7431    0.0122    0.0000 C   0  0  0  0  0  0  0  0  0  6  0  0
    1.2431    0.0051    0.0000 C   0  0  0  0  0  0  0  0  0  7  0  0
    0.4870    1.3006    0.0000 C   0  0  0  0  0  0  0  0  0  8  0  0
    1.2309    2.6032    0.0000 C   0  0  0  0  0  0  0  0  0  9  0  0
    0.4748    3.8987    0.0000 O   0  0  0  0  0  0  0  0  0 10  0  0
    2.7309    2.6102    0.0000 O   0  0  0  0  0  0  0  0  0 11  0  0
    3.2016   -1.8043    0.0000 H   0  0  0  0  0  0  0  0  0  0  0  0
    7.2117   -0.2787    0.0000 O   0  0  0  0  0  0  0  0  0  0  0  0
    7.3755   -1.7697    0.0000 C   0  0  1  0  0  0  0  0  0  0  0  0
    6.0081   -2.3862    0.0000 C   0  0  0  0  0  0  0  0  0  0  0  0
    8.6781   -2.5136    0.0000 C   0  0  0  0  0  0  0  0  0  0  0  0
    7.9342   -3.8161    0.0000 C   0  0  0  0  0  0  0  0  0  0  0  0
    9.4220   -1.2110    0.0000 C   0  0  0  0  0  0  0  0  0  0  0  0
    9.9806   -3.2575    0.0000 O   0  0  0  0  0  0  0  0  0  0  0  0
    5.7308    2.6244    0.0000 O   0  0  0  0  0  0  0  0  0  0  0  0
    7.2308    2.6314    0.0000 C   0  0  1  0  0  0  0  0  0  0  0  0
    7.9747    3.9340    0.0000 C   0  0  1  0  0  0  0  0  0  0  0  0
    9.4747    3.9410    0.0000 C   0  0  2  0  0  0  0  0  0  0  0  0
   10.2308    2.6455    0.0000 C   0  0  1  0  0  0  0  0  0  0  0  0
    9.4869    1.3430    0.0000 C   0  0  2  0  0  0  0  0  0  0  0  0
    7.9869    1.3359    0.0000 O   0  0  0  0  0  0  0  0  0  0  0  0
   10.2430    0.0475    0.0000 C   0  0  0  0  0  0  0  0  0  0  0  0
   11.7430    0.0545    0.0000 O   0  0  0  0  0  0  0  0  0  0  0  0
   11.7308    2.6526    0.0000 O   0  0  0  0  0  0  0  0  0  0  0  0
   10.2186    5.2436    0.0000 O   0  0  0  0  0  0  0  0  0  0  0  0
    7.2186    5.2295    0.0000 O   0  0  0  0  0  0  0  0  0  0  0  0
   -0.7130    1.2950    0.0000 H   0  0  0  0  0  0  0  0  0  0  0  0
   -3.2569   -0.0160    0.0000 C   0  0  0  0  0  0  0  0  0  0  0  0
   -1.7569   -0.0090    0.0000 O   0  0  0  0  0  0  0  0  0  0  0  0
   -1.0008   -1.3045    0.0000 C   0  0  0  0  0  0  0  0  0  0  0  0
   -1.7447   -2.6070    0.0000 C   0  0  0  0  0  0  0  0  0  0  0  0
   -0.9886   -3.9025    0.0000 C   0  0  0  0  0  0  0  0  0  0  0  0
    0.5114   -3.8955    0.0000 C   0  0  0  0  0  0  0  0  0  0  0  0
    1.2553   -2.5929    0.0000 C   0  0  0  0  0  0  0  0  0  0  0  0
    0.4992   -1.2974    0.0000 C   0  0  0  0  0  0  0  0  0  0  0  0
    2.7553   -2.5859    0.0000 O   0  0  0  0  0  0  0  0  0  0  0  0
  1  2  2  0  0  0  0
  1  6  1  0  0  0  0
  2  3  1  0  0  0  0
  3  4  2  0  0  0  0
  4  5  1  0  0  0  0
  5  6  2  0  0  0  0
  5 11  1  0  0  0  0
  6  7  1  0  0  0  0
  7  8  2  0  0  0  0
  8  9  1  0  0  0  0
  9 10  2  0  0  0  0
  9 11  1  0  0  0  0
  1 12  1  0  0  0  0
 13 14  1  0  0  0  0
 14 15  1  0  0  0  0
 14 16  1  6  0  0  0
 16 17  1  0  0  0  0
 16 18  1  0  0  0  0
 16 19  1  0  0  0  0
  2 15  1  0  0  0  0
  3 13  1  0  0  0  0
 21 20  1  6  0  0  0
 21 22  1  0  0  0  0
 21 26  1  0  0  0  0
 22 23  1  0  0  0  0
 22 31  1  1  0  0  0
 23 24  1  0  0  0  0
 23 30  1  6  0  0  0
 24 25  1  0  0  0  0
 24 29  1  1  0  0  0
 25 26  1  0  0  0  0
 25 27  1  6  0  0  0
 27 28  1  0  0  0  0
  4 20  1  0  0  0  0
  8 32  1  0  0  0  0
 33 34  1  0  0  0  0
 34 35  1  0  0  0  0
 35 36  1  0  0  0  0
 35 40  2  0  0  0  0
 36 37  2  0  0  0  0
 37 38  1  0  0  0  0
 38 39  2  0  0  0  0
 39 40  1  0  0  0  0
 39 41  1  0  0  0  0
  7 40  1  0  0  0  0
M  END
> <score_KierA2>
0.516725

$$$$
suggested molecule #109
 MOE2019            2D

 41 45  0  0  1  0  0  0  0  0999 V2000
    3.4992   -1.2833    0.0000 C   0  0  0  0  0  0  0  0  0  1  0  0
    4.9992   -1.2762    0.0000 C   0  0  0  0  0  0  0  0  0  2  0  0
    5.7430    0.0263    0.0000 C   0  0  0  0  0  0  0  0  0  3  0  0
    4.9869    1.3218    0.0000 C   0  0  0  0  0  0  0  0  0  4  0  0
    3.4870    1.3147    0.0000 C   0  0  0  0  0  0  0  0  0  5  0  0
    2.7431    0.0122    0.0000 C   0  0  0  0  0  0  0  0  0  6  0  0
    1.2431    0.0051    0.0000 C   0  0  0  0  0  0  0  0  0  7  0  0
    0.4870    1.3006    0.0000 C   0  0  0  0  0  0  0  0  0  8  0  0
    1.2309    2.6032    0.0000 C   0  0  0  0  0  0  0  0  0  9  0  0
    0.4748    3.8987    0.0000 O   0  0  0  0  0  0  0  0  0 10  0  0
    2.7309    2.6102    0.0000 O   0  0  0  0  0  0  0  0  0 11  0  0
    3.2016   -1.8043    0.0000 H   0  0  0  0  0  0  0  0  0  0  0  0
    7.2117   -0.2787    0.0000 O   0  0  0  0  0  0  0  0  0  0  0  0
    7.3755   -1.7697    0.0000 C   0  0  1  0  0  0  0  0  0  0  0  0
    6.0081   -2.3862    0.0000 C   0  0  0  0  0  0  0  0  0  0  0  0
    8.6781   -2.5136    0.0000 C   0  0  0  0  0  0  0  0  0  0  0  0
    7.9342   -3.8161    0.0000 C   0  0  0  0  0  0  0  0  0  0  0  0
    9.4220   -1.2110    0.0000 C   0  0  0  0  0  0  0  0  0  0  0  0
    9.9806   -3.2575    0.0000 O   0  0  0  0  0  0  0  0  0  0  0  0
    5.7308    2.6244    0.0000 O   0  0  0  0  0  0  0  0  0  0  0  0
    7.2308    2.6314    0.0000 C   0  0  1  0  0  0  0  0  0  0  0  0
    7.9747    3.9340    0.0000 C   0  0  1  0  0  0  0  0  0  0  0  0
    9.4747    3.9410    0.0000 C   0  0  2  0  0  0  0  0  0  0  0  0
   10.2308    2.6455    0.0000 C   0  0  1  0  0  0  0  0  0  0  0  0
    9.4869    1.3430    0.0000 C   0  0  2  0  0  0  0  0  0  0  0  0
    7.9869    1.3359    0.0000 O   0  0  0  0  0  0  0  0  0  0  0  0
   10.2430    0.0475    0.0000 C   0  0  0  0  0  0  0  0  0  0  0  0
   11.7430    0.0545    0.0000 O   0  0  0  0  0  0  0  0  0  0  0  0
   11.7308    2.6526    0.0000 O   0  0  0  0  0  0  0  0  0  0  0  0
   10.2186    5.2436    0.0000 O   0  0  0  0  0  0  0  0  0  0  0  0
    7.2186    5.2295    0.0000 O   0  0  0  0  0  0  0  0  0  0  0  0
   -0.7130    1.2950    0.0000 H   0  0  0  0  0  0  0  0  0  0  0  0
   -3.2569   -0.0160    0.0000 C   0  0  0  0  0  0  0  0  0  0  0  0
   -1.7569   -0.0090    0.0000 O   0  0  0  0  0  0  0  0  0  0  0  0
   -1.0008   -1.3045    0.0000 C   0  0  0  0  0  0  0  0  0  0  0  0
   -1.7447   -2.6070    0.0000 C   0  0  0  0  0  0  0  0  0  0  0  0
   -0.9886   -3.9025    0.0000 C   0  0  0  0  0  0  0  0  0  0  0  0
    0.5114   -3.8955    0.0000 C   0  0  0  0  0  0  0  0  0  0  0  0
    1.2553   -2.5929    0.0000 C   0  0  0  0  0  0  0  0  0  0  0  0
    0.4992   -1.2974    0.0000 C   0  0  0  0  0  0  0  0  0  0  0  0
    2.7553   -2.5859    0.0000 O   0  0  0  0  0  0  0  0  0  0  0  0
  1  2  2  0  0  0  0
  1  6  1  0  0  0  0
  2  3  1  0  0  0  0
  3  4  2  0  0  0  0
  4  5  1  0  0  0  0
  5  6  2  0  0  0  0
  5 11  1  0  0  0  0
  6  7  1  0  0  0  0
  7  8  2  0  0  0  0
  8  9  1  0  0  0  0
  9 10  2  0  0  0  0
  9 11  1  0  0  0  0
  1 12  1  0  0  0  0
 13 14  1  0  0  0  0
 14 15  1  0  0  0  0
 14 16  1  6  0  0  0
 16 17  1  0  0  0  0
 16 18  1  0  0  0  0
 16 19  1  0  0  0  0
  2 15  1  0  0  0  0
  3 13  1  0  0  0  0
 21 20  1  6  0  0  0
 21 22  1  0  0  0  0
 21 26  1  0  0  0  0
 22 23  1  0  0  0  0
 22 31  1  1  0  0  0
 23 24  1  0  0  0  0
 23 30  1  6  0  0  0
 24 25  1  0  0  0  0
 24 29  1  1  0  0  0
 25 26  1  0  0  0  0
 25 27  1  6  0  0  0
 27 28  1  0  0  0  0
  4 20  1  0  0  0  0
  8 32  1  0  0  0  0
 33 34  1  0  0  0  0
 34 35  1  0  0  0  0
 35 36  1  0  0  0  0
 35 40  2  0  0  0  0
 36 37  2  0  0  0  0
 37 38  1  0  0  0  0
 38 39  2  0  0  0  0
 39 40  1  0  0  0  0
 39 41  1  0  0  0  0
  7 40  1  0  0  0  0
M  END
> <score_KierA3>
0.51218

$$$$
suggested molecule #110
 MOE2019            2D

 41 45  0  0  1  0  0  0  0  0999 V2000
    3.4992   -1.2833    0.0000 C   0  0  0  0  0  0  0  0  0  1  0  0
    4.9992   -1.2762    0.0000 C   0  0  0  0  0  0  0  0  0  2  0  0
    5.7430    0.0263    0.0000 C   0  0  0  0  0  0  0  0  0  3  0  0
    4.9869    1.3218    0.0000 C   0  0  0  0  0  0  0  0  0  4  0  0
    3.4870    1.3147    0.0000 C   0  0  0  0  0  0  0  0  0  5  0  0
    2.7431    0.0122    0.0000 C   0  0  0  0  0  0  0  0  0  6  0  0
    1.2431    0.0051    0.0000 C   0  0  0  0  0  0  0  0  0  7  0  0
    0.4870    1.3006    0.0000 C   0  0  0  0  0  0  0  0  0  8  0  0
    1.2309    2.6032    0.0000 C   0  0  0  0  0  0  0  0  0  9  0  0
    0.4748    3.8987    0.0000 O   0  0  0  0  0  0  0  0  0 10  0  0
    2.7309    2.6102    0.0000 O   0  0  0  0  0  0  0  0  0 11  0  0
    3.2016   -1.8043    0.0000 H   0  0  0  0  0  0  0  0  0  0  0  0
    7.2117   -0.2787    0.0000 O   0  0  0  0  0  0  0  0  0  0  0  0
    7.3755   -1.7697    0.0000 C   0  0  1  0  0  0  0  0  0  0  0  0
    6.0081   -2.3862    0.0000 C   0  0  0  0  0  0  0  0  0  0  0  0
    8.6781   -2.5136    0.0000 C   0  0  0  0  0  0  0  0  0  0  0  0
    7.9342   -3.8161    0.0000 C   0  0  0  0  0  0  0  0  0  0  0  0
    9.4220   -1.2110    0.0000 C   0  0  0  0  0  0  0  0  0  0  0  0
    9.9806   -3.2575    0.0000 O   0  0  0  0  0  0  0  0  0  0  0  0
    5.7308    2.6244    0.0000 O   0  0  0  0  0  0  0  0  0  0  0  0
    7.2308    2.6314    0.0000 C   0  0  1  0  0  0  0  0  0  0  0  0
    7.9747    3.9340    0.0000 C   0  0  1  0  0  0  0  0  0  0  0  0
    9.4747    3.9410    0.0000 C   0  0  2  0  0  0  0  0  0  0  0  0
   10.2308    2.6455    0.0000 C   0  0  1  0  0  0  0  0  0  0  0  0
    9.4869    1.3430    0.0000 C   0  0  2  0  0  0  0  0  0  0  0  0
    7.9869    1.3359    0.0000 O   0  0  0  0  0  0  0  0  0  0  0  0
   10.2430    0.0475    0.0000 C   0  0  0  0  0  0  0  0  0  0  0  0
   11.7430    0.0545    0.0000 O   0  0  0  0  0  0  0  0  0  0  0  0
   11.7308    2.6526    0.0000 O   0  0  0  0  0  0  0  0  0  0  0  0
   10.2186    5.2436    0.0000 O   0  0  0  0  0  0  0  0  0  0  0  0
    7.2186    5.2295    0.0000 O   0  0  0  0  0  0  0  0  0  0  0  0
   -0.7130    1.2950    0.0000 H   0  0  0  0  0  0  0  0  0  0  0  0
   -3.2569   -0.0160    0.0000 C   0  0  0  0  0  0  0  0  0  0  0  0
   -1.7569   -0.0090    0.0000 O   0  0  0  0  0  0  0  0  0  0  0  0
   -1.0008   -1.3045    0.0000 C   0  0  0  0  0  0  0  0  0  0  0  0
   -1.7447   -2.6070    0.0000 C   0  0  0  0  0  0  0  0  0  0  0  0
   -0.9886   -3.9025    0.0000 C   0  0  0  0  0  0  0  0  0  0  0  0
    0.5114   -3.8955    0.0000 C   0  0  0  0  0  0  0  0  0  0  0  0
    1.2553   -2.5929    0.0000 C   0  0  0  0  0  0  0  0  0  0  0  0
    0.4992   -1.2974    0.0000 C   0  0  0  0  0  0  0  0  0  0  0  0
    2.7553   -2.5859    0.0000 O   0  0  0  0  0  0  0  0  0  0  0  0
  1  2  2  0  0  0  0
  1  6  1  0  0  0  0
  2  3  1  0  0  0  0
  3  4  2  0  0  0  0
  4  5  1  0  0  0  0
  5  6  2  0  0  0  0
  5 11  1  0  0  0  0
  6  7  1  0  0  0  0
  7  8  2  0  0  0  0
  8  9  1  0  0  0  0
  9 10  2  0  0  0  0
  9 11  1  0  0  0  0
  1 12  1  0  0  0  0
 13 14  1  0  0  0  0
 14 15  1  0  0  0  0
 14 16  1  6  0  0  0
 16 17  1  0  0  0  0
 16 18  1  0  0  0  0
 16 19  1  0  0  0  0
  2 15  1  0  0  0  0
  3 13  1  0  0  0  0
 21 20  1  6  0  0  0
 21 22  1  0  0  0  0
 21 26  1  0  0  0  0
 22 23  1  0  0  0  0
 22 31  1  1  0  0  0
 23 24  1  0  0  0  0
 23 30  1  6  0  0  0
 24 25  1  0  0  0  0
 24 29  1  1  0  0  0
 25 26  1  0  0  0  0
 25 27  1  6  0  0  0
 27 28  1  0  0  0  0
  4 20  1  0  0  0  0
  8 32  1  0  0  0  0
 33 34  1  0  0  0  0
 34 35  1  0  0  0  0
 35 36  1  0  0  0  0
 35 40  2  0  0  0  0
 36 37  2  0  0  0  0
 37 38  1  0  0  0  0
 38 39  2  0  0  0  0
 39 40  1  0  0  0  0
 39 41  1  0  0  0  0
  7 40  1  0  0  0  0
M  END
> <score_KierFlex>
0.516357

$$$$
suggested molecule #111
 MOE2019            2D

 42 46  0  0  1  0  0  0  0  0999 V2000
    3.4992   -1.2833    0.0000 C   0  0  0  0  0  0  0  0  0  1  0  0
    4.9992   -1.2762    0.0000 C   0  0  0  0  0  0  0  0  0  2  0  0
    5.7430    0.0263    0.0000 C   0  0  0  0  0  0  0  0  0  3  0  0
    4.9869    1.3218    0.0000 C   0  0  0  0  0  0  0  0  0  4  0  0
    3.4870    1.3147    0.0000 C   0  0  0  0  0  0  0  0  0  5  0  0
    2.7431    0.0122    0.0000 C   0  0  0  0  0  0  0  0  0  6  0  0
    1.2431    0.0051    0.0000 C   0  0  0  0  0  0  0  0  0  7  0  0
    0.4870    1.3006    0.0000 C   0  0  0  0  0  0  0  0  0  8  0  0
    1.2309    2.6032    0.0000 C   0  0  0  0  0  0  0  0  0  9  0  0
    0.4748    3.8987    0.0000 O   0  0  0  0  0  0  0  0  0 10  0  0
    2.7309    2.6102    0.0000 O   0  0  0  0  0  0  0  0  0 11  0  0
    2.9041   -2.3253    0.0000 H   0  0  0  0  0  0  0  0  0  0  0  0
    7.2117   -0.2787    0.0000 O   0  0  0  0  0  0  0  0  0  0  0  0
    7.3755   -1.7697    0.0000 C   0  0  1  0  0  0  0  0  0  0  0  0
    6.0081   -2.3862    0.0000 C   0  0  0  0  0  0  0  0  0  0  0  0
    8.6781   -2.5136    0.0000 C   0  0  0  0  0  0  0  0  0  0  0  0
    7.9342   -3.8161    0.0000 C   0  0  0  0  0  0  0  0  0  0  0  0
    9.9806   -3.2575    0.0000 C   0  0  0  0  0  0  0  0  0  0  0  0
    9.4220   -1.2110    0.0000 O   0  0  0  0  0  0  0  0  0  0  0  0
    5.7308    2.6244    0.0000 O   0  0  0  0  0  0  0  0  0  0  0  0
    7.2308    2.6314    0.0000 C   0  0  1  0  0  0  0  0  0  0  0  0
    7.9747    3.9340    0.0000 C   0  0  1  0  0  0  0  0  0  0  0  0
    9.4747    3.9410    0.0000 C   0  0  2  0  0  0  0  0  0  0  0  0
   10.2308    2.6455    0.0000 C   0  0  1  0  0  0  0  0  0  0  0  0
    9.4869    1.3430    0.0000 C   0  0  2  0  0  0  0  0  0  0  0  0
    7.9869    1.3359    0.0000 O   0  0  0  0  0  0  0  0  0  0  0  0
   10.2430    0.0475    0.0000 C   0  0  0  0  0  0  0  0  0  0  0  0
   11.7430    0.0545    0.0000 O   0  0  0  0  0  0  0  0  0  0  0  0
   11.7308    2.6526    0.0000 O   0  0  0  0  0  0  0  0  0  0  0  0
   10.2186    5.2436    0.0000 O   0  0  0  0  0  0  0  0  0  0  0  0
    7.2186    5.2295    0.0000 O   0  0  0  0  0  0  0  0  0  0  0  0
   -0.7130    1.2950    0.0000 H   0  0  0  0  0  0  0  0  0  0  0  0
   -3.2324   -5.2121    0.0000 C   0  0  0  0  0  0  0  0  0  0  0  0
   -1.7324   -5.2051    0.0000 O   0  0  0  0  0  0  0  0  0  0  0  0
   -0.9886   -3.9025    0.0000 C   0  0  0  0  0  0  0  0  0  0  0  0
   -1.7447   -2.6070    0.0000 C   0  0  0  0  0  0  0  0  0  0  0  0
   -1.0008   -1.3045    0.0000 C   0  0  0  0  0  0  0  0  0  0  0  0
    0.4992   -1.2974    0.0000 C   0  0  0  0  0  0  0  0  0  0  0  0
    1.2553   -2.5929    0.0000 C   0  0  0  0  0  0  0  0  0  0  0  0
    0.5114   -3.8955    0.0000 C   0  0  0  0  0  0  0  0  0  0  0  0
   -1.7569   -0.0090    0.0000 O   0  0  0  0  0  0  0  0  0  0  0  0
   -3.2569   -0.0160    0.0000 C   0  0  0  0  0  0  0  0  0  0  0  0
  1  2  2  0  0  0  0
  1  6  1  0  0  0  0
  2  3  1  0  0  0  0
  3  4  2  0  0  0  0
  4  5  1  0  0  0  0
  5  6  2  0  0  0  0
  5 11  1  0  0  0  0
  6  7  1  0  0  0  0
  7  8  2  0  0  0  0
  8  9  1  0  0  0  0
  9 10  2  0  0  0  0
  9 11  1  0  0  0  0
  1 12  1  0  0  0  0
 13 14  1  0  0  0  0
 14 15  1  0  0  0  0
 14 16  1  6  0  0  0
 16 17  1  0  0  0  0
 16 18  1  0  0  0  0
 16 19  1  0  0  0  0
  2 15  1  0  0  0  0
  3 13  1  0  0  0  0
 21 20  1  6  0  0  0
 21 22  1  0  0  0  0
 21 26  1  0  0  0  0
 22 23  1  0  0  0  0
 22 31  1  1  0  0  0
 23 24  1  0  0  0  0
 23 30  1  6  0  0  0
 24 25  1  0  0  0  0
 24 29  1  1  0  0  0
 25 26  1  0  0  0  0
 25 27  1  6  0  0  0
 27 28  1  0  0  0  0
  4 20  1  0  0  0  0
  8 32  1  0  0  0  0
 33 34  1  0  0  0  0
 34 35  1  0  0  0  0
 35 36  1  0  0  0  0
 35 40  2  0  0  0  0
 36 37  2  0  0  0  0
 37 38  1  0  0  0  0
 37 41  1  0  0  0  0
 38 39  2  0  0  0  0
 39 40  1  0  0  0  0
 41 42  1  0  0  0  0
  7 38  1  0  0  0  0
M  END
> <score_Kier3>
0.511563

$$$$
suggested molecule #112
 MOE2019            2D

 42 46  0  0  1  0  0  0  0  0999 V2000
    3.4992   -1.2833    0.0000 C   0  0  0  0  0  0  0  0  0  1  0  0
    4.9992   -1.2762    0.0000 C   0  0  0  0  0  0  0  0  0  2  0  0
    5.7430    0.0263    0.0000 C   0  0  0  0  0  0  0  0  0  3  0  0
    4.9869    1.3218    0.0000 C   0  0  0  0  0  0  0  0  0  4  0  0
    3.4870    1.3147    0.0000 C   0  0  0  0  0  0  0  0  0  5  0  0
    2.7431    0.0122    0.0000 C   0  0  0  0  0  0  0  0  0  6  0  0
    1.2431    0.0051    0.0000 C   0  0  0  0  0  0  0  0  0  7  0  0
    0.4870    1.3006    0.0000 C   0  0  0  0  0  0  0  0  0  8  0  0
    1.2309    2.6032    0.0000 C   0  0  0  0  0  0  0  0  0  9  0  0
    0.4748    3.8987    0.0000 O   0  0  0  0  0  0  0  0  0 10  0  0
    2.7309    2.6102    0.0000 O   0  0  0  0  0  0  0  0  0 11  0  0
    2.9041   -2.3253    0.0000 H   0  0  0  0  0  0  0  0  0  0  0  0
    7.2117   -0.2787    0.0000 O   0  0  0  0  0  0  0  0  0  0  0  0
    7.3755   -1.7697    0.0000 C   0  0  1  0  0  0  0  0  0  0  0  0
    6.0081   -2.3862    0.0000 C   0  0  0  0  0  0  0  0  0  0  0  0
    8.6781   -2.5136    0.0000 C   0  0  0  0  0  0  0  0  0  0  0  0
    7.9342   -3.8161    0.0000 C   0  0  0  0  0  0  0  0  0  0  0  0
    9.9806   -3.2575    0.0000 C   0  0  0  0  0  0  0  0  0  0  0  0
    9.4220   -1.2110    0.0000 O   0  0  0  0  0  0  0  0  0  0  0  0
    5.7308    2.6244    0.0000 O   0  0  0  0  0  0  0  0  0  0  0  0
    7.2308    2.6314    0.0000 C   0  0  1  0  0  0  0  0  0  0  0  0
    7.9747    3.9340    0.0000 C   0  0  1  0  0  0  0  0  0  0  0  0
    9.4747    3.9410    0.0000 C   0  0  2  0  0  0  0  0  0  0  0  0
   10.2308    2.6455    0.0000 C   0  0  1  0  0  0  0  0  0  0  0  0
    9.4869    1.3430    0.0000 C   0  0  2  0  0  0  0  0  0  0  0  0
    7.9869    1.3359    0.0000 O   0  0  0  0  0  0  0  0  0  0  0  0
   10.2430    0.0475    0.0000 C   0  0  0  0  0  0  0  0  0  0  0  0
   11.7430    0.0545    0.0000 O   0  0  0  0  0  0  0  0  0  0  0  0
   11.7308    2.6526    0.0000 O   0  0  0  0  0  0  0  0  0  0  0  0
   10.2186    5.2436    0.0000 O   0  0  0  0  0  0  0  0  0  0  0  0
    7.2186    5.2295    0.0000 O   0  0  0  0  0  0  0  0  0  0  0  0
   -0.7130    1.2950    0.0000 H   0  0  0  0  0  0  0  0  0  0  0  0
   -3.2324   -5.2121    0.0000 C   0  0  0  0  0  0  0  0  0  0  0  0
   -1.7324   -5.2051    0.0000 O   0  0  0  0  0  0  0  0  0  0  0  0
   -0.9886   -3.9025    0.0000 C   0  0  0  0  0  0  0  0  0  0  0  0
   -1.7447   -2.6070    0.0000 C   0  0  0  0  0  0  0  0  0  0  0  0
   -1.0008   -1.3045    0.0000 C   0  0  0  0  0  0  0  0  0  0  0  0
    0.4992   -1.2974    0.0000 C   0  0  0  0  0  0  0  0  0  0  0  0
    1.2553   -2.5929    0.0000 C   0  0  0  0  0  0  0  0  0  0  0  0
    0.5114   -3.8955    0.0000 C   0  0  0  0  0  0  0  0  0  0  0  0
   -1.7569   -0.0090    0.0000 O   0  0  0  0  0  0  0  0  0  0  0  0
   -3.2569   -0.0160    0.0000 C   0  0  0  0  0  0  0  0  0  0  0  0
  1  2  2  0  0  0  0
  1  6  1  0  0  0  0
  2  3  1  0  0  0  0
  3  4  2  0  0  0  0
  4  5  1  0  0  0  0
  5  6  2  0  0  0  0
  5 11  1  0  0  0  0
  6  7  1  0  0  0  0
  7  8  2  0  0  0  0
  8  9  1  0  0  0  0
  9 10  2  0  0  0  0
  9 11  1  0  0  0  0
  1 12  1  0  0  0  0
 13 14  1  0  0  0  0
 14 15  1  0  0  0  0
 14 16  1  6  0  0  0
 16 17  1  0  0  0  0
 16 18  1  0  0  0  0
 16 19  1  0  0  0  0
  2 15  1  0  0  0  0
  3 13  1  0  0  0  0
 21 20  1  6  0  0  0
 21 22  1  0  0  0  0
 21 26  1  0  0  0  0
 22 23  1  0  0  0  0
 22 31  1  1  0  0  0
 23 24  1  0  0  0  0
 23 30  1  6  0  0  0
 24 25  1  0  0  0  0
 24 29  1  1  0  0  0
 25 26  1  0  0  0  0
 25 27  1  6  0  0  0
 27 28  1  0  0  0  0
  4 20  1  0  0  0  0
  8 32  1  0  0  0  0
 33 34  1  0  0  0  0
 34 35  1  0  0  0  0
 35 36  1  0  0  0  0
 35 40  2  0  0  0  0
 36 37  2  0  0  0  0
 37 38  1  0  0  0  0
 37 41  1  0  0  0  0
 38 39  2  0  0  0  0
 39 40  1  0  0  0  0
 41 42  1  0  0  0  0
  7 38  1  0  0  0  0
M  END
> <score_KierA1>
0.517618

$$$$
suggested molecule #113
 MOE2019            2D

 42 46  0  0  1  0  0  0  0  0999 V2000
    3.4992   -1.2833    0.0000 C   0  0  0  0  0  0  0  0  0  1  0  0
    4.9992   -1.2762    0.0000 C   0  0  0  0  0  0  0  0  0  2  0  0
    5.7430    0.0263    0.0000 C   0  0  0  0  0  0  0  0  0  3  0  0
    4.9869    1.3218    0.0000 C   0  0  0  0  0  0  0  0  0  4  0  0
    3.4870    1.3147    0.0000 C   0  0  0  0  0  0  0  0  0  5  0  0
    2.7431    0.0122    0.0000 C   0  0  0  0  0  0  0  0  0  6  0  0
    1.2431    0.0051    0.0000 C   0  0  0  0  0  0  0  0  0  7  0  0
    0.4870    1.3006    0.0000 C   0  0  0  0  0  0  0  0  0  8  0  0
    1.2309    2.6032    0.0000 C   0  0  0  0  0  0  0  0  0  9  0  0
    0.4748    3.8987    0.0000 O   0  0  0  0  0  0  0  0  0 10  0  0
    2.7309    2.6102    0.0000 O   0  0  0  0  0  0  0  0  0 11  0  0
    2.9041   -2.3253    0.0000 H   0  0  0  0  0  0  0  0  0  0  0  0
    7.2117   -0.2787    0.0000 O   0  0  0  0  0  0  0  0  0  0  0  0
    7.3755   -1.7697    0.0000 C   0  0  1  0  0  0  0  0  0  0  0  0
    6.0081   -2.3862    0.0000 C   0  0  0  0  0  0  0  0  0  0  0  0
    8.6781   -2.5136    0.0000 C   0  0  0  0  0  0  0  0  0  0  0  0
    7.9342   -3.8161    0.0000 C   0  0  0  0  0  0  0  0  0  0  0  0
    9.9806   -3.2575    0.0000 C   0  0  0  0  0  0  0  0  0  0  0  0
    9.4220   -1.2110    0.0000 O   0  0  0  0  0  0  0  0  0  0  0  0
    5.7308    2.6244    0.0000 O   0  0  0  0  0  0  0  0  0  0  0  0
    7.2308    2.6314    0.0000 C   0  0  1  0  0  0  0  0  0  0  0  0
    7.9747    3.9340    0.0000 C   0  0  1  0  0  0  0  0  0  0  0  0
    9.4747    3.9410    0.0000 C   0  0  2  0  0  0  0  0  0  0  0  0
   10.2308    2.6455    0.0000 C   0  0  1  0  0  0  0  0  0  0  0  0
    9.4869    1.3430    0.0000 C   0  0  2  0  0  0  0  0  0  0  0  0
    7.9869    1.3359    0.0000 O   0  0  0  0  0  0  0  0  0  0  0  0
   10.2430    0.0475    0.0000 C   0  0  0  0  0  0  0  0  0  0  0  0
   11.7430    0.0545    0.0000 O   0  0  0  0  0  0  0  0  0  0  0  0
   11.7308    2.6526    0.0000 O   0  0  0  0  0  0  0  0  0  0  0  0
   10.2186    5.2436    0.0000 O   0  0  0  0  0  0  0  0  0  0  0  0
    7.2186    5.2295    0.0000 O   0  0  0  0  0  0  0  0  0  0  0  0
   -0.7130    1.2950    0.0000 H   0  0  0  0  0  0  0  0  0  0  0  0
   -3.2324   -5.2121    0.0000 C   0  0  0  0  0  0  0  0  0  0  0  0
   -1.7324   -5.2051    0.0000 O   0  0  0  0  0  0  0  0  0  0  0  0
   -0.9886   -3.9025    0.0000 C   0  0  0  0  0  0  0  0  0  0  0  0
   -1.7447   -2.6070    0.0000 C   0  0  0  0  0  0  0  0  0  0  0  0
   -1.0008   -1.3045    0.0000 C   0  0  0  0  0  0  0  0  0  0  0  0
    0.4992   -1.2974    0.0000 C   0  0  0  0  0  0  0  0  0  0  0  0
    1.2553   -2.5929    0.0000 C   0  0  0  0  0  0  0  0  0  0  0  0
    0.5114   -3.8955    0.0000 C   0  0  0  0  0  0  0  0  0  0  0  0
   -1.7569   -0.0090    0.0000 O   0  0  0  0  0  0  0  0  0  0  0  0
   -3.2569   -0.0160    0.0000 C   0  0  0  0  0  0  0  0  0  0  0  0
  1  2  2  0  0  0  0
  1  6  1  0  0  0  0
  2  3  1  0  0  0  0
  3  4  2  0  0  0  0
  4  5  1  0  0  0  0
  5  6  2  0  0  0  0
  5 11  1  0  0  0  0
  6  7  1  0  0  0  0
  7  8  2  0  0  0  0
  8  9  1  0  0  0  0
  9 10  2  0  0  0  0
  9 11  1  0  0  0  0
  1 12  1  0  0  0  0
 13 14  1  0  0  0  0
 14 15  1  0  0  0  0
 14 16  1  6  0  0  0
 16 17  1  0  0  0  0
 16 18  1  0  0  0  0
 16 19  1  0  0  0  0
  2 15  1  0  0  0  0
  3 13  1  0  0  0  0
 21 20  1  6  0  0  0
 21 22  1  0  0  0  0
 21 26  1  0  0  0  0
 22 23  1  0  0  0  0
 22 31  1  1  0  0  0
 23 24  1  0  0  0  0
 23 30  1  6  0  0  0
 24 25  1  0  0  0  0
 24 29  1  1  0  0  0
 25 26  1  0  0  0  0
 25 27  1  6  0  0  0
 27 28  1  0  0  0  0
  4 20  1  0  0  0  0
  8 32  1  0  0  0  0
 33 34  1  0  0  0  0
 34 35  1  0  0  0  0
 35 36  1  0  0  0  0
 35 40  2  0  0  0  0
 36 37  2  0  0  0  0
 37 38  1  0  0  0  0
 37 41  1  0  0  0  0
 38 39  2  0  0  0  0
 39 40  1  0  0  0  0
 41 42  1  0  0  0  0
  7 38  1  0  0  0  0
M  END
> <score_KierA2>
0.516729

$$$$
suggested molecule #114
 MOE2019            2D

 42 46  0  0  1  0  0  0  0  0999 V2000
    3.4992   -1.2833    0.0000 C   0  0  0  0  0  0  0  0  0  1  0  0
    4.9992   -1.2762    0.0000 C   0  0  0  0  0  0  0  0  0  2  0  0
    5.7430    0.0263    0.0000 C   0  0  0  0  0  0  0  0  0  3  0  0
    4.9869    1.3218    0.0000 C   0  0  0  0  0  0  0  0  0  4  0  0
    3.4870    1.3147    0.0000 C   0  0  0  0  0  0  0  0  0  5  0  0
    2.7431    0.0122    0.0000 C   0  0  0  0  0  0  0  0  0  6  0  0
    1.2431    0.0051    0.0000 C   0  0  0  0  0  0  0  0  0  7  0  0
    0.4870    1.3006    0.0000 C   0  0  0  0  0  0  0  0  0  8  0  0
    1.2309    2.6032    0.0000 C   0  0  0  0  0  0  0  0  0  9  0  0
    0.4748    3.8987    0.0000 O   0  0  0  0  0  0  0  0  0 10  0  0
    2.7309    2.6102    0.0000 O   0  0  0  0  0  0  0  0  0 11  0  0
    2.9041   -2.3253    0.0000 H   0  0  0  0  0  0  0  0  0  0  0  0
    7.2117   -0.2787    0.0000 O   0  0  0  0  0  0  0  0  0  0  0  0
    7.3755   -1.7697    0.0000 C   0  0  1  0  0  0  0  0  0  0  0  0
    6.0081   -2.3862    0.0000 C   0  0  0  0  0  0  0  0  0  0  0  0
    8.6781   -2.5136    0.0000 C   0  0  0  0  0  0  0  0  0  0  0  0
    7.9342   -3.8161    0.0000 C   0  0  0  0  0  0  0  0  0  0  0  0
    9.9806   -3.2575    0.0000 C   0  0  0  0  0  0  0  0  0  0  0  0
    9.4220   -1.2110    0.0000 O   0  0  0  0  0  0  0  0  0  0  0  0
    5.7308    2.6244    0.0000 O   0  0  0  0  0  0  0  0  0  0  0  0
    7.2308    2.6314    0.0000 C   0  0  1  0  0  0  0  0  0  0  0  0
    7.9747    3.9340    0.0000 C   0  0  1  0  0  0  0  0  0  0  0  0
    9.4747    3.9410    0.0000 C   0  0  2  0  0  0  0  0  0  0  0  0
   10.2308    2.6455    0.0000 C   0  0  1  0  0  0  0  0  0  0  0  0
    9.4869    1.3430    0.0000 C   0  0  2  0  0  0  0  0  0  0  0  0
    7.9869    1.3359    0.0000 O   0  0  0  0  0  0  0  0  0  0  0  0
   10.2430    0.0475    0.0000 C   0  0  0  0  0  0  0  0  0  0  0  0
   11.7430    0.0545    0.0000 O   0  0  0  0  0  0  0  0  0  0  0  0
   11.7308    2.6526    0.0000 O   0  0  0  0  0  0  0  0  0  0  0  0
   10.2186    5.2436    0.0000 O   0  0  0  0  0  0  0  0  0  0  0  0
    7.2186    5.2295    0.0000 O   0  0  0  0  0  0  0  0  0  0  0  0
   -0.7130    1.2950    0.0000 H   0  0  0  0  0  0  0  0  0  0  0  0
   -3.2324   -5.2121    0.0000 C   0  0  0  0  0  0  0  0  0  0  0  0
   -1.7324   -5.2051    0.0000 O   0  0  0  0  0  0  0  0  0  0  0  0
   -0.9886   -3.9025    0.0000 C   0  0  0  0  0  0  0  0  0  0  0  0
   -1.7447   -2.6070    0.0000 C   0  0  0  0  0  0  0  0  0  0  0  0
   -1.0008   -1.3045    0.0000 C   0  0  0  0  0  0  0  0  0  0  0  0
    0.4992   -1.2974    0.0000 C   0  0  0  0  0  0  0  0  0  0  0  0
    1.2553   -2.5929    0.0000 C   0  0  0  0  0  0  0  0  0  0  0  0
    0.5114   -3.8955    0.0000 C   0  0  0  0  0  0  0  0  0  0  0  0
   -1.7569   -0.0090    0.0000 O   0  0  0  0  0  0  0  0  0  0  0  0
   -3.2569   -0.0160    0.0000 C   0  0  0  0  0  0  0  0  0  0  0  0
  1  2  2  0  0  0  0
  1  6  1  0  0  0  0
  2  3  1  0  0  0  0
  3  4  2  0  0  0  0
  4  5  1  0  0  0  0
  5  6  2  0  0  0  0
  5 11  1  0  0  0  0
  6  7  1  0  0  0  0
  7  8  2  0  0  0  0
  8  9  1  0  0  0  0
  9 10  2  0  0  0  0
  9 11  1  0  0  0  0
  1 12  1  0  0  0  0
 13 14  1  0  0  0  0
 14 15  1  0  0  0  0
 14 16  1  6  0  0  0
 16 17  1  0  0  0  0
 16 18  1  0  0  0  0
 16 19  1  0  0  0  0
  2 15  1  0  0  0  0
  3 13  1  0  0  0  0
 21 20  1  6  0  0  0
 21 22  1  0  0  0  0
 21 26  1  0  0  0  0
 22 23  1  0  0  0  0
 22 31  1  1  0  0  0
 23 24  1  0  0  0  0
 23 30  1  6  0  0  0
 24 25  1  0  0  0  0
 24 29  1  1  0  0  0
 25 26  1  0  0  0  0
 25 27  1  6  0  0  0
 27 28  1  0  0  0  0
  4 20  1  0  0  0  0
  8 32  1  0  0  0  0
 33 34  1  0  0  0  0
 34 35  1  0  0  0  0
 35 36  1  0  0  0  0
 35 40  2  0  0  0  0
 36 37  2  0  0  0  0
 37 38  1  0  0  0  0
 37 41  1  0  0  0  0
 38 39  2  0  0  0  0
 39 40  1  0  0  0  0
 41 42  1  0  0  0  0
  7 38  1  0  0  0  0
M  END
> <score_KierA3>
0.512176

$$$$
suggested molecule #115
 MOE2019            2D

 42 46  0  0  1  0  0  0  0  0999 V2000
    3.4992   -1.2833    0.0000 C   0  0  0  0  0  0  0  0  0  1  0  0
    4.9992   -1.2762    0.0000 C   0  0  0  0  0  0  0  0  0  2  0  0
    5.7430    0.0263    0.0000 C   0  0  0  0  0  0  0  0  0  3  0  0
    4.9869    1.3218    0.0000 C   0  0  0  0  0  0  0  0  0  4  0  0
    3.4870    1.3147    0.0000 C   0  0  0  0  0  0  0  0  0  5  0  0
    2.7431    0.0122    0.0000 C   0  0  0  0  0  0  0  0  0  6  0  0
    1.2431    0.0051    0.0000 C   0  0  0  0  0  0  0  0  0  7  0  0
    0.4870    1.3006    0.0000 C   0  0  0  0  0  0  0  0  0  8  0  0
    1.2309    2.6032    0.0000 C   0  0  0  0  0  0  0  0  0  9  0  0
    0.4748    3.8987    0.0000 O   0  0  0  0  0  0  0  0  0 10  0  0
    2.7309    2.6102    0.0000 O   0  0  0  0  0  0  0  0  0 11  0  0
    2.9041   -2.3253    0.0000 H   0  0  0  0  0  0  0  0  0  0  0  0
    7.2117   -0.2787    0.0000 O   0  0  0  0  0  0  0  0  0  0  0  0
    7.3755   -1.7697    0.0000 C   0  0  1  0  0  0  0  0  0  0  0  0
    6.0081   -2.3862    0.0000 C   0  0  0  0  0  0  0  0  0  0  0  0
    8.6781   -2.5136    0.0000 C   0  0  0  0  0  0  0  0  0  0  0  0
    7.9342   -3.8161    0.0000 C   0  0  0  0  0  0  0  0  0  0  0  0
    9.9806   -3.2575    0.0000 C   0  0  0  0  0  0  0  0  0  0  0  0
    9.4220   -1.2110    0.0000 O   0  0  0  0  0  0  0  0  0  0  0  0
    5.7308    2.6244    0.0000 O   0  0  0  0  0  0  0  0  0  0  0  0
    7.2308    2.6314    0.0000 C   0  0  1  0  0  0  0  0  0  0  0  0
    7.9747    3.9340    0.0000 C   0  0  1  0  0  0  0  0  0  0  0  0
    9.4747    3.9410    0.0000 C   0  0  2  0  0  0  0  0  0  0  0  0
   10.2308    2.6455    0.0000 C   0  0  1  0  0  0  0  0  0  0  0  0
    9.4869    1.3430    0.0000 C   0  0  2  0  0  0  0  0  0  0  0  0
    7.9869    1.3359    0.0000 O   0  0  0  0  0  0  0  0  0  0  0  0
   10.2430    0.0475    0.0000 C   0  0  0  0  0  0  0  0  0  0  0  0
   11.7430    0.0545    0.0000 O   0  0  0  0  0  0  0  0  0  0  0  0
   11.7308    2.6526    0.0000 O   0  0  0  0  0  0  0  0  0  0  0  0
   10.2186    5.2436    0.0000 O   0  0  0  0  0  0  0  0  0  0  0  0
    7.2186    5.2295    0.0000 O   0  0  0  0  0  0  0  0  0  0  0  0
   -0.7130    1.2950    0.0000 H   0  0  0  0  0  0  0  0  0  0  0  0
   -3.2324   -5.2121    0.0000 C   0  0  0  0  0  0  0  0  0  0  0  0
   -1.7324   -5.2051    0.0000 O   0  0  0  0  0  0  0  0  0  0  0  0
   -0.9886   -3.9025    0.0000 C   0  0  0  0  0  0  0  0  0  0  0  0
   -1.7447   -2.6070    0.0000 C   0  0  0  0  0  0  0  0  0  0  0  0
   -1.0008   -1.3045    0.0000 C   0  0  0  0  0  0  0  0  0  0  0  0
    0.4992   -1.2974    0.0000 C   0  0  0  0  0  0  0  0  0  0  0  0
    1.2553   -2.5929    0.0000 C   0  0  0  0  0  0  0  0  0  0  0  0
    0.5114   -3.8955    0.0000 C   0  0  0  0  0  0  0  0  0  0  0  0
   -1.7569   -0.0090    0.0000 O   0  0  0  0  0  0  0  0  0  0  0  0
   -3.2569   -0.0160    0.0000 C   0  0  0  0  0  0  0  0  0  0  0  0
  1  2  2  0  0  0  0
  1  6  1  0  0  0  0
  2  3  1  0  0  0  0
  3  4  2  0  0  0  0
  4  5  1  0  0  0  0
  5  6  2  0  0  0  0
  5 11  1  0  0  0  0
  6  7  1  0  0  0  0
  7  8  2  0  0  0  0
  8  9  1  0  0  0  0
  9 10  2  0  0  0  0
  9 11  1  0  0  0  0
  1 12  1  0  0  0  0
 13 14  1  0  0  0  0
 14 15  1  0  0  0  0
 14 16  1  6  0  0  0
 16 17  1  0  0  0  0
 16 18  1  0  0  0  0
 16 19  1  0  0  0  0
  2 15  1  0  0  0  0
  3 13  1  0  0  0  0
 21 20  1  6  0  0  0
 21 22  1  0  0  0  0
 21 26  1  0  0  0  0
 22 23  1  0  0  0  0
 22 31  1  1  0  0  0
 23 24  1  0  0  0  0
 23 30  1  6  0  0  0
 24 25  1  0  0  0  0
 24 29  1  1  0  0  0
 25 26  1  0  0  0  0
 25 27  1  6  0  0  0
 27 28  1  0  0  0  0
  4 20  1  0  0  0  0
  8 32  1  0  0  0  0
 33 34  1  0  0  0  0
 34 35  1  0  0  0  0
 35 36  1  0  0  0  0
 35 40  2  0  0  0  0
 36 37  2  0  0  0  0
 37 38  1  0  0  0  0
 37 41  1  0  0  0  0
 38 39  2  0  0  0  0
 39 40  1  0  0  0  0
 41 42  1  0  0  0  0
  7 38  1  0  0  0  0
M  END
> <score_KierFlex>
0.516362

$$$$
suggested molecule #116
 MOE2019            2D

 40 44  0  0  1  0  0  0  0  0999 V2000
    3.4992   -1.2833    0.0000 C   0  0  0  0  0  0  0  0  0  1  0  0
    4.9992   -1.2762    0.0000 C   0  0  0  0  0  0  0  0  0  2  0  0
    5.7430    0.0263    0.0000 C   0  0  0  0  0  0  0  0  0  3  0  0
    4.9869    1.3218    0.0000 C   0  0  0  0  0  0  0  0  0  4  0  0
    3.4870    1.3147    0.0000 C   0  0  0  0  0  0  0  0  0  5  0  0
    2.7431    0.0122    0.0000 C   0  0  0  0  0  0  0  0  0  6  0  0
    1.2431    0.0051    0.0000 C   0  0  0  0  0  0  0  0  0  7  0  0
    0.4870    1.3006    0.0000 C   0  0  0  0  0  0  0  0  0  8  0  0
    1.2309    2.6032    0.0000 C   0  0  0  0  0  0  0  0  0  9  0  0
    0.4748    3.8987    0.0000 O   0  0  0  0  0  0  0  0  0 10  0  0
    2.7309    2.6102    0.0000 O   0  0  0  0  0  0  0  0  0 11  0  0
    2.9041   -2.3253    0.0000 H   0  0  0  0  0  0  0  0  0  0  0  0
    7.2117   -0.2787    0.0000 O   0  0  0  0  0  0  0  0  0  0  0  0
    7.3755   -1.7697    0.0000 C   0  0  1  0  0  0  0  0  0  0  0  0
    6.0081   -2.3862    0.0000 C   0  0  0  0  0  0  0  0  0  0  0  0
    8.6781   -2.5136    0.0000 C   0  0  0  0  0  0  0  0  0  0  0  0
    9.9806   -3.2575    0.0000 C   0  0  0  0  0  0  0  0  0  0  0  0
    7.9342   -3.8161    0.0000 C   0  0  0  0  0  0  0  0  0  0  0  0
    9.4220   -1.2110    0.0000 O   0  0  0  0  0  0  0  0  0  0  0  0
    5.7308    2.6244    0.0000 O   0  0  0  0  0  0  0  0  0  0  0  0
    7.2308    2.6314    0.0000 C   0  0  1  0  0  0  0  0  0  0  0  0
    7.9747    3.9340    0.0000 C   0  0  1  0  0  0  0  0  0  0  0  0
    9.4747    3.9410    0.0000 C   0  0  2  0  0  0  0  0  0  0  0  0
   10.2308    2.6455    0.0000 C   0  0  1  0  0  0  0  0  0  0  0  0
    9.4869    1.3430    0.0000 C   0  0  2  0  0  0  0  0  0  0  0  0
    7.9869    1.3359    0.0000 O   0  0  0  0  0  0  0  0  0  0  0  0
   10.2430    0.0475    0.0000 C   0  0  0  0  0  0  0  0  0  0  0  0
   11.7430    0.0545    0.0000 O   0  0  0  0  0  0  0  0  0  0  0  0
   11.7308    2.6526    0.0000 O   0  0  0  0  0  0  0  0  0  0  0  0
   10.2186    5.2436    0.0000 O   0  0  0  0  0  0  0  0  0  0  0  0
    7.2186    5.2295    0.0000 O   0  0  0  0  0  0  0  0  0  0  0  0
   -0.7130    1.2950    0.0000 H   0  0  0  0  0  0  0  0  0  0  0  0
    0.4992   -1.2974    0.0000 C   0  0  0  0  0  0  0  0  0  0  0  0
   -1.0008   -1.3045    0.0000 C   0  0  0  0  0  0  0  0  0  0  0  0
   -1.7447   -2.6070    0.0000 C   0  0  0  0  0  0  0  0  0  0  0  0
   -0.9886   -3.9025    0.0000 C   0  0  0  0  0  0  0  0  0  0  0  0
    0.5114   -3.8955    0.0000 C   0  0  0  0  0  0  0  0  0  0  0  0
    1.2553   -2.5929    0.0000 C   0  0  0  0  0  0  0  0  0  0  0  0
   -3.2446   -2.6141    0.0000 O   0  0  0  0  0  0  0  0  0  0  0  0
   -3.9885   -3.9166    0.0000 C   0  0  0  0  0  0  0  0  0  0  0  0
  1  2  2  0  0  0  0
  1  6  1  0  0  0  0
  2  3  1  0  0  0  0
  3  4  2  0  0  0  0
  4  5  1  0  0  0  0
  5  6  2  0  0  0  0
  5 11  1  0  0  0  0
  6  7  1  0  0  0  0
  7  8  2  0  0  0  0
  8  9  1  0  0  0  0
  9 10  2  0  0  0  0
  9 11  1  0  0  0  0
  1 12  1  0  0  0  0
 13 14  1  0  0  0  0
 14 15  1  0  0  0  0
 14 16  1  6  0  0  0
 16 17  1  0  0  0  0
 16 18  1  0  0  0  0
 16 19  1  0  0  0  0
  2 15  1  0  0  0  0
  3 13  1  0  0  0  0
 21 20  1  6  0  0  0
 21 22  1  0  0  0  0
 21 26  1  0  0  0  0
 22 23  1  0  0  0  0
 22 31  1  1  0  0  0
 23 24  1  0  0  0  0
 23 30  1  6  0  0  0
 24 25  1  0  0  0  0
 24 29  1  1  0  0  0
 25 26  1  0  0  0  0
 25 27  1  6  0  0  0
 27 28  1  0  0  0  0
  4 20  1  0  0  0  0
  8 32  1  0  0  0  0
 33 34  2  0  0  0  0
 33 38  1  0  0  0  0
 34 35  1  0  0  0  0
 35 36  2  0  0  0  0
 35 39  1  0  0  0  0
 36 37  1  0  0  0  0
 37 38  2  0  0  0  0
 39 40  1  0  0  0  0
  7 33  1  0  0  0  0
M  END
> <score_Kier1>
0.517722

$$$$
suggested molecule #117
 MOE2019            2D

 40 44  0  0  1  0  0  0  0  0999 V2000
    3.4992   -1.2833    0.0000 C   0  0  0  0  0  0  0  0  0  1  0  0
    4.9992   -1.2762    0.0000 C   0  0  0  0  0  0  0  0  0  2  0  0
    5.7430    0.0263    0.0000 C   0  0  0  0  0  0  0  0  0  3  0  0
    4.9869    1.3218    0.0000 C   0  0  0  0  0  0  0  0  0  4  0  0
    3.4870    1.3147    0.0000 C   0  0  0  0  0  0  0  0  0  5  0  0
    2.7431    0.0122    0.0000 C   0  0  0  0  0  0  0  0  0  6  0  0
    1.2431    0.0051    0.0000 C   0  0  0  0  0  0  0  0  0  7  0  0
    0.4870    1.3006    0.0000 C   0  0  0  0  0  0  0  0  0  8  0  0
    1.2309    2.6032    0.0000 C   0  0  0  0  0  0  0  0  0  9  0  0
    0.4748    3.8987    0.0000 O   0  0  0  0  0  0  0  0  0 10  0  0
    2.7309    2.6102    0.0000 O   0  0  0  0  0  0  0  0  0 11  0  0
    2.9041   -2.3253    0.0000 H   0  0  0  0  0  0  0  0  0  0  0  0
    7.2117   -0.2787    0.0000 O   0  0  0  0  0  0  0  0  0  0  0  0
    7.3755   -1.7697    0.0000 C   0  0  1  0  0  0  0  0  0  0  0  0
    6.0081   -2.3862    0.0000 C   0  0  0  0  0  0  0  0  0  0  0  0
    8.6781   -2.5136    0.0000 C   0  0  0  0  0  0  0  0  0  0  0  0
    9.9806   -3.2575    0.0000 C   0  0  0  0  0  0  0  0  0  0  0  0
    7.9342   -3.8161    0.0000 C   0  0  0  0  0  0  0  0  0  0  0  0
    9.4220   -1.2110    0.0000 O   0  0  0  0  0  0  0  0  0  0  0  0
    5.7308    2.6244    0.0000 O   0  0  0  0  0  0  0  0  0  0  0  0
    7.2308    2.6314    0.0000 C   0  0  1  0  0  0  0  0  0  0  0  0
    7.9747    3.9340    0.0000 C   0  0  1  0  0  0  0  0  0  0  0  0
    9.4747    3.9410    0.0000 C   0  0  2  0  0  0  0  0  0  0  0  0
   10.2308    2.6455    0.0000 C   0  0  1  0  0  0  0  0  0  0  0  0
    9.4869    1.3430    0.0000 C   0  0  2  0  0  0  0  0  0  0  0  0
    7.9869    1.3359    0.0000 O   0  0  0  0  0  0  0  0  0  0  0  0
   10.2430    0.0475    0.0000 C   0  0  0  0  0  0  0  0  0  0  0  0
   11.7430    0.0545    0.0000 O   0  0  0  0  0  0  0  0  0  0  0  0
   11.7308    2.6526    0.0000 O   0  0  0  0  0  0  0  0  0  0  0  0
   10.2186    5.2436    0.0000 O   0  0  0  0  0  0  0  0  0  0  0  0
    7.2186    5.2295    0.0000 O   0  0  0  0  0  0  0  0  0  0  0  0
   -0.7130    1.2950    0.0000 H   0  0  0  0  0  0  0  0  0  0  0  0
    0.4992   -1.2974    0.0000 C   0  0  0  0  0  0  0  0  0  0  0  0
   -1.0008   -1.3045    0.0000 C   0  0  0  0  0  0  0  0  0  0  0  0
   -1.7447   -2.6070    0.0000 C   0  0  0  0  0  0  0  0  0  0  0  0
   -0.9886   -3.9025    0.0000 C   0  0  0  0  0  0  0  0  0  0  0  0
    0.5114   -3.8955    0.0000 C   0  0  0  0  0  0  0  0  0  0  0  0
    1.2553   -2.5929    0.0000 C   0  0  0  0  0  0  0  0  0  0  0  0
   -3.2446   -2.6141    0.0000 O   0  0  0  0  0  0  0  0  0  0  0  0
   -3.9885   -3.9166    0.0000 C   0  0  0  0  0  0  0  0  0  0  0  0
  1  2  2  0  0  0  0
  1  6  1  0  0  0  0
  2  3  1  0  0  0  0
  3  4  2  0  0  0  0
  4  5  1  0  0  0  0
  5  6  2  0  0  0  0
  5 11  1  0  0  0  0
  6  7  1  0  0  0  0
  7  8  2  0  0  0  0
  8  9  1  0  0  0  0
  9 10  2  0  0  0  0
  9 11  1  0  0  0  0
  1 12  1  0  0  0  0
 13 14  1  0  0  0  0
 14 15  1  0  0  0  0
 14 16  1  6  0  0  0
 16 17  1  0  0  0  0
 16 18  1  0  0  0  0
 16 19  1  0  0  0  0
  2 15  1  0  0  0  0
  3 13  1  0  0  0  0
 21 20  1  6  0  0  0
 21 22  1  0  0  0  0
 21 26  1  0  0  0  0
 22 23  1  0  0  0  0
 22 31  1  1  0  0  0
 23 24  1  0  0  0  0
 23 30  1  6  0  0  0
 24 25  1  0  0  0  0
 24 29  1  1  0  0  0
 25 26  1  0  0  0  0
 25 27  1  6  0  0  0
 27 28  1  0  0  0  0
  4 20  1  0  0  0  0
  8 32  1  0  0  0  0
 33 34  2  0  0  0  0
 33 38  1  0  0  0  0
 34 35  1  0  0  0  0
 35 36  2  0  0  0  0
 35 39  1  0  0  0  0
 36 37  1  0  0  0  0
 37 38  2  0  0  0  0
 39 40  1  0  0  0  0
  7 33  1  0  0  0  0
M  END
> <score_Kier2>
0.51647

$$$$
suggested molecule #118
 MOE2019            2D

 40 44  0  0  1  0  0  0  0  0999 V2000
    3.4992   -1.2833    0.0000 C   0  0  0  0  0  0  0  0  0  1  0  0
    4.9992   -1.2762    0.0000 C   0  0  0  0  0  0  0  0  0  2  0  0
    5.7430    0.0263    0.0000 C   0  0  0  0  0  0  0  0  0  3  0  0
    4.9869    1.3218    0.0000 C   0  0  0  0  0  0  0  0  0  4  0  0
    3.4870    1.3147    0.0000 C   0  0  0  0  0  0  0  0  0  5  0  0
    2.7431    0.0122    0.0000 C   0  0  0  0  0  0  0  0  0  6  0  0
    1.2431    0.0051    0.0000 C   0  0  0  0  0  0  0  0  0  7  0  0
    0.4870    1.3006    0.0000 C   0  0  0  0  0  0  0  0  0  8  0  0
    1.2309    2.6032    0.0000 C   0  0  0  0  0  0  0  0  0  9  0  0
    0.4748    3.8987    0.0000 O   0  0  0  0  0  0  0  0  0 10  0  0
    2.7309    2.6102    0.0000 O   0  0  0  0  0  0  0  0  0 11  0  0
    2.9041   -2.3253    0.0000 H   0  0  0  0  0  0  0  0  0  0  0  0
    7.2117   -0.2787    0.0000 O   0  0  0  0  0  0  0  0  0  0  0  0
    7.3755   -1.7697    0.0000 C   0  0  1  0  0  0  0  0  0  0  0  0
    6.0081   -2.3862    0.0000 C   0  0  0  0  0  0  0  0  0  0  0  0
    8.6781   -2.5136    0.0000 C   0  0  0  0  0  0  0  0  0  0  0  0
    9.9806   -3.2575    0.0000 C   0  0  0  0  0  0  0  0  0  0  0  0
    7.9342   -3.8161    0.0000 C   0  0  0  0  0  0  0  0  0  0  0  0
    9.4220   -1.2110    0.0000 O   0  0  0  0  0  0  0  0  0  0  0  0
    5.7308    2.6244    0.0000 O   0  0  0  0  0  0  0  0  0  0  0  0
    7.2308    2.6314    0.0000 C   0  0  1  0  0  0  0  0  0  0  0  0
    7.9747    3.9340    0.0000 C   0  0  1  0  0  0  0  0  0  0  0  0
    9.4747    3.9410    0.0000 C   0  0  2  0  0  0  0  0  0  0  0  0
   10.2308    2.6455    0.0000 C   0  0  1  0  0  0  0  0  0  0  0  0
    9.4869    1.3430    0.0000 C   0  0  2  0  0  0  0  0  0  0  0  0
    7.9869    1.3359    0.0000 O   0  0  0  0  0  0  0  0  0  0  0  0
   10.2430    0.0475    0.0000 C   0  0  0  0  0  0  0  0  0  0  0  0
   11.7430    0.0545    0.0000 O   0  0  0  0  0  0  0  0  0  0  0  0
   11.7308    2.6526    0.0000 O   0  0  0  0  0  0  0  0  0  0  0  0
   10.2186    5.2436    0.0000 O   0  0  0  0  0  0  0  0  0  0  0  0
    7.2186    5.2295    0.0000 O   0  0  0  0  0  0  0  0  0  0  0  0
   -0.7130    1.2950    0.0000 H   0  0  0  0  0  0  0  0  0  0  0  0
    0.4992   -1.2974    0.0000 C   0  0  0  0  0  0  0  0  0  0  0  0
   -1.0008   -1.3045    0.0000 C   0  0  0  0  0  0  0  0  0  0  0  0
   -1.7447   -2.6070    0.0000 C   0  0  0  0  0  0  0  0  0  0  0  0
   -0.9886   -3.9025    0.0000 C   0  0  0  0  0  0  0  0  0  0  0  0
    0.5114   -3.8955    0.0000 C   0  0  0  0  0  0  0  0  0  0  0  0
    1.2553   -2.5929    0.0000 C   0  0  0  0  0  0  0  0  0  0  0  0
   -3.2446   -2.6141    0.0000 O   0  0  0  0  0  0  0  0  0  0  0  0
   -3.9885   -3.9166    0.0000 C   0  0  0  0  0  0  0  0  0  0  0  0
  1  2  2  0  0  0  0
  1  6  1  0  0  0  0
  2  3  1  0  0  0  0
  3  4  2  0  0  0  0
  4  5  1  0  0  0  0
  5  6  2  0  0  0  0
  5 11  1  0  0  0  0
  6  7  1  0  0  0  0
  7  8  2  0  0  0  0
  8  9  1  0  0  0  0
  9 10  2  0  0  0  0
  9 11  1  0  0  0  0
  1 12  1  0  0  0  0
 13 14  1  0  0  0  0
 14 15  1  0  0  0  0
 14 16  1  6  0  0  0
 16 17  1  0  0  0  0
 16 18  1  0  0  0  0
 16 19  1  0  0  0  0
  2 15  1  0  0  0  0
  3 13  1  0  0  0  0
 21 20  1  6  0  0  0
 21 22  1  0  0  0  0
 21 26  1  0  0  0  0
 22 23  1  0  0  0  0
 22 31  1  1  0  0  0
 23 24  1  0  0  0  0
 23 30  1  6  0  0  0
 24 25  1  0  0  0  0
 24 29  1  1  0  0  0
 25 26  1  0  0  0  0
 25 27  1  6  0  0  0
 27 28  1  0  0  0  0
  4 20  1  0  0  0  0
  8 32  1  0  0  0  0
 33 34  2  0  0  0  0
 33 38  1  0  0  0  0
 34 35  1  0  0  0  0
 35 36  2  0  0  0  0
 35 39  1  0  0  0  0
 36 37  1  0  0  0  0
 37 38  2  0  0  0  0
 39 40  1  0  0  0  0
  7 33  1  0  0  0  0
M  END
> <score_Kier3>
0.511578

$$$$
suggested molecule #119
 MOE2019            2D

 40 44  0  0  1  0  0  0  0  0999 V2000
    3.4992   -1.2833    0.0000 C   0  0  0  0  0  0  0  0  0  1  0  0
    4.9992   -1.2762    0.0000 C   0  0  0  0  0  0  0  0  0  2  0  0
    5.7430    0.0263    0.0000 C   0  0  0  0  0  0  0  0  0  3  0  0
    4.9869    1.3218    0.0000 C   0  0  0  0  0  0  0  0  0  4  0  0
    3.4870    1.3147    0.0000 C   0  0  0  0  0  0  0  0  0  5  0  0
    2.7431    0.0122    0.0000 C   0  0  0  0  0  0  0  0  0  6  0  0
    1.2431    0.0051    0.0000 C   0  0  0  0  0  0  0  0  0  7  0  0
    0.4870    1.3006    0.0000 C   0  0  0  0  0  0  0  0  0  8  0  0
    1.2309    2.6032    0.0000 C   0  0  0  0  0  0  0  0  0  9  0  0
    0.4748    3.8987    0.0000 O   0  0  0  0  0  0  0  0  0 10  0  0
    2.7309    2.6102    0.0000 O   0  0  0  0  0  0  0  0  0 11  0  0
    2.9041   -2.3253    0.0000 H   0  0  0  0  0  0  0  0  0  0  0  0
    7.2117   -0.2787    0.0000 O   0  0  0  0  0  0  0  0  0  0  0  0
    7.3755   -1.7697    0.0000 C   0  0  1  0  0  0  0  0  0  0  0  0
    6.0081   -2.3862    0.0000 C   0  0  0  0  0  0  0  0  0  0  0  0
    8.6781   -2.5136    0.0000 C   0  0  0  0  0  0  0  0  0  0  0  0
    9.9806   -3.2575    0.0000 C   0  0  0  0  0  0  0  0  0  0  0  0
    7.9342   -3.8161    0.0000 C   0  0  0  0  0  0  0  0  0  0  0  0
    9.4220   -1.2110    0.0000 O   0  0  0  0  0  0  0  0  0  0  0  0
    5.7308    2.6244    0.0000 O   0  0  0  0  0  0  0  0  0  0  0  0
    7.2308    2.6314    0.0000 C   0  0  1  0  0  0  0  0  0  0  0  0
    7.9747    3.9340    0.0000 C   0  0  1  0  0  0  0  0  0  0  0  0
    9.4747    3.9410    0.0000 C   0  0  2  0  0  0  0  0  0  0  0  0
   10.2308    2.6455    0.0000 C   0  0  1  0  0  0  0  0  0  0  0  0
    9.4869    1.3430    0.0000 C   0  0  2  0  0  0  0  0  0  0  0  0
    7.9869    1.3359    0.0000 O   0  0  0  0  0  0  0  0  0  0  0  0
   10.2430    0.0475    0.0000 C   0  0  0  0  0  0  0  0  0  0  0  0
   11.7430    0.0545    0.0000 O   0  0  0  0  0  0  0  0  0  0  0  0
   11.7308    2.6526    0.0000 O   0  0  0  0  0  0  0  0  0  0  0  0
   10.2186    5.2436    0.0000 O   0  0  0  0  0  0  0  0  0  0  0  0
    7.2186    5.2295    0.0000 O   0  0  0  0  0  0  0  0  0  0  0  0
   -0.7130    1.2950    0.0000 H   0  0  0  0  0  0  0  0  0  0  0  0
    0.4992   -1.2974    0.0000 C   0  0  0  0  0  0  0  0  0  0  0  0
   -1.0008   -1.3045    0.0000 C   0  0  0  0  0  0  0  0  0  0  0  0
   -1.7447   -2.6070    0.0000 C   0  0  0  0  0  0  0  0  0  0  0  0
   -0.9886   -3.9025    0.0000 C   0  0  0  0  0  0  0  0  0  0  0  0
    0.5114   -3.8955    0.0000 C   0  0  0  0  0  0  0  0  0  0  0  0
    1.2553   -2.5929    0.0000 C   0  0  0  0  0  0  0  0  0  0  0  0
   -3.2446   -2.6141    0.0000 O   0  0  0  0  0  0  0  0  0  0  0  0
   -3.9885   -3.9166    0.0000 C   0  0  0  0  0  0  0  0  0  0  0  0
  1  2  2  0  0  0  0
  1  6  1  0  0  0  0
  2  3  1  0  0  0  0
  3  4  2  0  0  0  0
  4  5  1  0  0  0  0
  5  6  2  0  0  0  0
  5 11  1  0  0  0  0
  6  7  1  0  0  0  0
  7  8  2  0  0  0  0
  8  9  1  0  0  0  0
  9 10  2  0  0  0  0
  9 11  1  0  0  0  0
  1 12  1  0  0  0  0
 13 14  1  0  0  0  0
 14 15  1  0  0  0  0
 14 16  1  6  0  0  0
 16 17  1  0  0  0  0
 16 18  1  0  0  0  0
 16 19  1  0  0  0  0
  2 15  1  0  0  0  0
  3 13  1  0  0  0  0
 21 20  1  6  0  0  0
 21 22  1  0  0  0  0
 21 26  1  0  0  0  0
 22 23  1  0  0  0  0
 22 31  1  1  0  0  0
 23 24  1  0  0  0  0
 23 30  1  6  0  0  0
 24 25  1  0  0  0  0
 24 29  1  1  0  0  0
 25 26  1  0  0  0  0
 25 27  1  6  0  0  0
 27 28  1  0  0  0  0
  4 20  1  0  0  0  0
  8 32  1  0  0  0  0
 33 34  2  0  0  0  0
 33 38  1  0  0  0  0
 34 35  1  0  0  0  0
 35 36  2  0  0  0  0
 35 39  1  0  0  0  0
 36 37  1  0  0  0  0
 37 38  2  0  0  0  0
 39 40  1  0  0  0  0
  7 33  1  0  0  0  0
M  END
> <score_KierA1>
0.517658

$$$$
suggested molecule #120
 MOE2019            2D

 40 44  0  0  1  0  0  0  0  0999 V2000
    3.4992   -1.2833    0.0000 C   0  0  0  0  0  0  0  0  0  1  0  0
    4.9992   -1.2762    0.0000 C   0  0  0  0  0  0  0  0  0  2  0  0
    5.7430    0.0263    0.0000 C   0  0  0  0  0  0  0  0  0  3  0  0
    4.9869    1.3218    0.0000 C   0  0  0  0  0  0  0  0  0  4  0  0
    3.4870    1.3147    0.0000 C   0  0  0  0  0  0  0  0  0  5  0  0
    2.7431    0.0122    0.0000 C   0  0  0  0  0  0  0  0  0  6  0  0
    1.2431    0.0051    0.0000 C   0  0  0  0  0  0  0  0  0  7  0  0
    0.4870    1.3006    0.0000 C   0  0  0  0  0  0  0  0  0  8  0  0
    1.2309    2.6032    0.0000 C   0  0  0  0  0  0  0  0  0  9  0  0
    0.4748    3.8987    0.0000 O   0  0  0  0  0  0  0  0  0 10  0  0
    2.7309    2.6102    0.0000 O   0  0  0  0  0  0  0  0  0 11  0  0
    2.9041   -2.3253    0.0000 H   0  0  0  0  0  0  0  0  0  0  0  0
    7.2117   -0.2787    0.0000 O   0  0  0  0  0  0  0  0  0  0  0  0
    7.3755   -1.7697    0.0000 C   0  0  1  0  0  0  0  0  0  0  0  0
    6.0081   -2.3862    0.0000 C   0  0  0  0  0  0  0  0  0  0  0  0
    8.6781   -2.5136    0.0000 C   0  0  0  0  0  0  0  0  0  0  0  0
    9.9806   -3.2575    0.0000 C   0  0  0  0  0  0  0  0  0  0  0  0
    7.9342   -3.8161    0.0000 C   0  0  0  0  0  0  0  0  0  0  0  0
    9.4220   -1.2110    0.0000 O   0  0  0  0  0  0  0  0  0  0  0  0
    5.7308    2.6244    0.0000 O   0  0  0  0  0  0  0  0  0  0  0  0
    7.2308    2.6314    0.0000 C   0  0  1  0  0  0  0  0  0  0  0  0
    7.9747    3.9340    0.0000 C   0  0  1  0  0  0  0  0  0  0  0  0
    9.4747    3.9410    0.0000 C   0  0  2  0  0  0  0  0  0  0  0  0
   10.2308    2.6455    0.0000 C   0  0  1  0  0  0  0  0  0  0  0  0
    9.4869    1.3430    0.0000 C   0  0  2  0  0  0  0  0  0  0  0  0
    7.9869    1.3359    0.0000 O   0  0  0  0  0  0  0  0  0  0  0  0
   10.2430    0.0475    0.0000 C   0  0  0  0  0  0  0  0  0  0  0  0
   11.7430    0.0545    0.0000 O   0  0  0  0  0  0  0  0  0  0  0  0
   11.7308    2.6526    0.0000 O   0  0  0  0  0  0  0  0  0  0  0  0
   10.2186    5.2436    0.0000 O   0  0  0  0  0  0  0  0  0  0  0  0
    7.2186    5.2295    0.0000 O   0  0  0  0  0  0  0  0  0  0  0  0
   -0.7130    1.2950    0.0000 H   0  0  0  0  0  0  0  0  0  0  0  0
    0.4992   -1.2974    0.0000 C   0  0  0  0  0  0  0  0  0  0  0  0
   -1.0008   -1.3045    0.0000 C   0  0  0  0  0  0  0  0  0  0  0  0
   -1.7447   -2.6070    0.0000 C   0  0  0  0  0  0  0  0  0  0  0  0
   -0.9886   -3.9025    0.0000 C   0  0  0  0  0  0  0  0  0  0  0  0
    0.5114   -3.8955    0.0000 C   0  0  0  0  0  0  0  0  0  0  0  0
    1.2553   -2.5929    0.0000 C   0  0  0  0  0  0  0  0  0  0  0  0
   -3.2446   -2.6141    0.0000 O   0  0  0  0  0  0  0  0  0  0  0  0
   -3.9885   -3.9166    0.0000 C   0  0  0  0  0  0  0  0  0  0  0  0
  1  2  2  0  0  0  0
  1  6  1  0  0  0  0
  2  3  1  0  0  0  0
  3  4  2  0  0  0  0
  4  5  1  0  0  0  0
  5  6  2  0  0  0  0
  5 11  1  0  0  0  0
  6  7  1  0  0  0  0
  7  8  2  0  0  0  0
  8  9  1  0  0  0  0
  9 10  2  0  0  0  0
  9 11  1  0  0  0  0
  1 12  1  0  0  0  0
 13 14  1  0  0  0  0
 14 15  1  0  0  0  0
 14 16  1  6  0  0  0
 16 17  1  0  0  0  0
 16 18  1  0  0  0  0
 16 19  1  0  0  0  0
  2 15  1  0  0  0  0
  3 13  1  0  0  0  0
 21 20  1  6  0  0  0
 21 22  1  0  0  0  0
 21 26  1  0  0  0  0
 22 23  1  0  0  0  0
 22 31  1  1  0  0  0
 23 24  1  0  0  0  0
 23 30  1  6  0  0  0
 24 25  1  0  0  0  0
 24 29  1  1  0  0  0
 25 26  1  0  0  0  0
 25 27  1  6  0  0  0
 27 28  1  0  0  0  0
  4 20  1  0  0  0  0
  8 32  1  0  0  0  0
 33 34  2  0  0  0  0
 33 38  1  0  0  0  0
 34 35  1  0  0  0  0
 35 36  2  0  0  0  0
 35 39  1  0  0  0  0
 36 37  1  0  0  0  0
 37 38  2  0  0  0  0
 39 40  1  0  0  0  0
  7 33  1  0  0  0  0
M  END
> <score_KierA2>
0.516762

$$$$
suggested molecule #121
 MOE2019            2D

 40 44  0  0  1  0  0  0  0  0999 V2000
    3.4992   -1.2833    0.0000 C   0  0  0  0  0  0  0  0  0  1  0  0
    4.9992   -1.2762    0.0000 C   0  0  0  0  0  0  0  0  0  2  0  0
    5.7430    0.0263    0.0000 C   0  0  0  0  0  0  0  0  0  3  0  0
    4.9869    1.3218    0.0000 C   0  0  0  0  0  0  0  0  0  4  0  0
    3.4870    1.3147    0.0000 C   0  0  0  0  0  0  0  0  0  5  0  0
    2.7431    0.0122    0.0000 C   0  0  0  0  0  0  0  0  0  6  0  0
    1.2431    0.0051    0.0000 C   0  0  0  0  0  0  0  0  0  7  0  0
    0.4870    1.3006    0.0000 C   0  0  0  0  0  0  0  0  0  8  0  0
    1.2309    2.6032    0.0000 C   0  0  0  0  0  0  0  0  0  9  0  0
    0.4748    3.8987    0.0000 O   0  0  0  0  0  0  0  0  0 10  0  0
    2.7309    2.6102    0.0000 O   0  0  0  0  0  0  0  0  0 11  0  0
    2.9041   -2.3253    0.0000 H   0  0  0  0  0  0  0  0  0  0  0  0
    7.2117   -0.2787    0.0000 O   0  0  0  0  0  0  0  0  0  0  0  0
    7.3755   -1.7697    0.0000 C   0  0  1  0  0  0  0  0  0  0  0  0
    6.0081   -2.3862    0.0000 C   0  0  0  0  0  0  0  0  0  0  0  0
    8.6781   -2.5136    0.0000 C   0  0  0  0  0  0  0  0  0  0  0  0
    9.9806   -3.2575    0.0000 C   0  0  0  0  0  0  0  0  0  0  0  0
    7.9342   -3.8161    0.0000 C   0  0  0  0  0  0  0  0  0  0  0  0
    9.4220   -1.2110    0.0000 O   0  0  0  0  0  0  0  0  0  0  0  0
    5.7308    2.6244    0.0000 O   0  0  0  0  0  0  0  0  0  0  0  0
    7.2308    2.6314    0.0000 C   0  0  1  0  0  0  0  0  0  0  0  0
    7.9747    3.9340    0.0000 C   0  0  1  0  0  0  0  0  0  0  0  0
    9.4747    3.9410    0.0000 C   0  0  2  0  0  0  0  0  0  0  0  0
   10.2308    2.6455    0.0000 C   0  0  1  0  0  0  0  0  0  0  0  0
    9.4869    1.3430    0.0000 C   0  0  2  0  0  0  0  0  0  0  0  0
    7.9869    1.3359    0.0000 O   0  0  0  0  0  0  0  0  0  0  0  0
   10.2430    0.0475    0.0000 C   0  0  0  0  0  0  0  0  0  0  0  0
   11.7430    0.0545    0.0000 O   0  0  0  0  0  0  0  0  0  0  0  0
   11.7308    2.6526    0.0000 O   0  0  0  0  0  0  0  0  0  0  0  0
   10.2186    5.2436    0.0000 O   0  0  0  0  0  0  0  0  0  0  0  0
    7.2186    5.2295    0.0000 O   0  0  0  0  0  0  0  0  0  0  0  0
   -0.7130    1.2950    0.0000 H   0  0  0  0  0  0  0  0  0  0  0  0
    0.4992   -1.2974    0.0000 C   0  0  0  0  0  0  0  0  0  0  0  0
   -1.0008   -1.3045    0.0000 C   0  0  0  0  0  0  0  0  0  0  0  0
   -1.7447   -2.6070    0.0000 C   0  0  0  0  0  0  0  0  0  0  0  0
   -0.9886   -3.9025    0.0000 C   0  0  0  0  0  0  0  0  0  0  0  0
    0.5114   -3.8955    0.0000 C   0  0  0  0  0  0  0  0  0  0  0  0
    1.2553   -2.5929    0.0000 C   0  0  0  0  0  0  0  0  0  0  0  0
   -3.2446   -2.6141    0.0000 O   0  0  0  0  0  0  0  0  0  0  0  0
   -3.9885   -3.9166    0.0000 C   0  0  0  0  0  0  0  0  0  0  0  0
  1  2  2  0  0  0  0
  1  6  1  0  0  0  0
  2  3  1  0  0  0  0
  3  4  2  0  0  0  0
  4  5  1  0  0  0  0
  5  6  2  0  0  0  0
  5 11  1  0  0  0  0
  6  7  1  0  0  0  0
  7  8  2  0  0  0  0
  8  9  1  0  0  0  0
  9 10  2  0  0  0  0
  9 11  1  0  0  0  0
  1 12  1  0  0  0  0
 13 14  1  0  0  0  0
 14 15  1  0  0  0  0
 14 16  1  6  0  0  0
 16 17  1  0  0  0  0
 16 18  1  0  0  0  0
 16 19  1  0  0  0  0
  2 15  1  0  0  0  0
  3 13  1  0  0  0  0
 21 20  1  6  0  0  0
 21 22  1  0  0  0  0
 21 26  1  0  0  0  0
 22 23  1  0  0  0  0
 22 31  1  1  0  0  0
 23 24  1  0  0  0  0
 23 30  1  6  0  0  0
 24 25  1  0  0  0  0
 24 29  1  1  0  0  0
 25 26  1  0  0  0  0
 25 27  1  6  0  0  0
 27 28  1  0  0  0  0
  4 20  1  0  0  0  0
  8 32  1  0  0  0  0
 33 34  2  0  0  0  0
 33 38  1  0  0  0  0
 34 35  1  0  0  0  0
 35 36  2  0  0  0  0
 35 39  1  0  0  0  0
 36 37  1  0  0  0  0
 37 38  2  0  0  0  0
 39 40  1  0  0  0  0
  7 33  1  0  0  0  0
M  END
> <score_KierA3>
0.512199

$$$$
suggested molecule #122
 MOE2019            2D

 40 44  0  0  1  0  0  0  0  0999 V2000
    3.4992   -1.2833    0.0000 C   0  0  0  0  0  0  0  0  0  1  0  0
    4.9992   -1.2762    0.0000 C   0  0  0  0  0  0  0  0  0  2  0  0
    5.7430    0.0263    0.0000 C   0  0  0  0  0  0  0  0  0  3  0  0
    4.9869    1.3218    0.0000 C   0  0  0  0  0  0  0  0  0  4  0  0
    3.4870    1.3147    0.0000 C   0  0  0  0  0  0  0  0  0  5  0  0
    2.7431    0.0122    0.0000 C   0  0  0  0  0  0  0  0  0  6  0  0
    1.2431    0.0051    0.0000 C   0  0  0  0  0  0  0  0  0  7  0  0
    0.4870    1.3006    0.0000 C   0  0  0  0  0  0  0  0  0  8  0  0
    1.2309    2.6032    0.0000 C   0  0  0  0  0  0  0  0  0  9  0  0
    0.4748    3.8987    0.0000 O   0  0  0  0  0  0  0  0  0 10  0  0
    2.7309    2.6102    0.0000 O   0  0  0  0  0  0  0  0  0 11  0  0
    2.9041   -2.3253    0.0000 H   0  0  0  0  0  0  0  0  0  0  0  0
    7.2117   -0.2787    0.0000 O   0  0  0  0  0  0  0  0  0  0  0  0
    7.3755   -1.7697    0.0000 C   0  0  1  0  0  0  0  0  0  0  0  0
    6.0081   -2.3862    0.0000 C   0  0  0  0  0  0  0  0  0  0  0  0
    8.6781   -2.5136    0.0000 C   0  0  0  0  0  0  0  0  0  0  0  0
    9.9806   -3.2575    0.0000 C   0  0  0  0  0  0  0  0  0  0  0  0
    7.9342   -3.8161    0.0000 C   0  0  0  0  0  0  0  0  0  0  0  0
    9.4220   -1.2110    0.0000 O   0  0  0  0  0  0  0  0  0  0  0  0
    5.7308    2.6244    0.0000 O   0  0  0  0  0  0  0  0  0  0  0  0
    7.2308    2.6314    0.0000 C   0  0  1  0  0  0  0  0  0  0  0  0
    7.9747    3.9340    0.0000 C   0  0  1  0  0  0  0  0  0  0  0  0
    9.4747    3.9410    0.0000 C   0  0  2  0  0  0  0  0  0  0  0  0
   10.2308    2.6455    0.0000 C   0  0  1  0  0  0  0  0  0  0  0  0
    9.4869    1.3430    0.0000 C   0  0  2  0  0  0  0  0  0  0  0  0
    7.9869    1.3359    0.0000 O   0  0  0  0  0  0  0  0  0  0  0  0
   10.2430    0.0475    0.0000 C   0  0  0  0  0  0  0  0  0  0  0  0
   11.7430    0.0545    0.0000 O   0  0  0  0  0  0  0  0  0  0  0  0
   11.7308    2.6526    0.0000 O   0  0  0  0  0  0  0  0  0  0  0  0
   10.2186    5.2436    0.0000 O   0  0  0  0  0  0  0  0  0  0  0  0
    7.2186    5.2295    0.0000 O   0  0  0  0  0  0  0  0  0  0  0  0
   -0.7130    1.2950    0.0000 H   0  0  0  0  0  0  0  0  0  0  0  0
    0.4992   -1.2974    0.0000 C   0  0  0  0  0  0  0  0  0  0  0  0
   -1.0008   -1.3045    0.0000 C   0  0  0  0  0  0  0  0  0  0  0  0
   -1.7447   -2.6070    0.0000 C   0  0  0  0  0  0  0  0  0  0  0  0
   -0.9886   -3.9025    0.0000 C   0  0  0  0  0  0  0  0  0  0  0  0
    0.5114   -3.8955    0.0000 C   0  0  0  0  0  0  0  0  0  0  0  0
    1.2553   -2.5929    0.0000 C   0  0  0  0  0  0  0  0  0  0  0  0
   -3.2446   -2.6141    0.0000 O   0  0  0  0  0  0  0  0  0  0  0  0
   -3.9885   -3.9166    0.0000 C   0  0  0  0  0  0  0  0  0  0  0  0
  1  2  2  0  0  0  0
  1  6  1  0  0  0  0
  2  3  1  0  0  0  0
  3  4  2  0  0  0  0
  4  5  1  0  0  0  0
  5  6  2  0  0  0  0
  5 11  1  0  0  0  0
  6  7  1  0  0  0  0
  7  8  2  0  0  0  0
  8  9  1  0  0  0  0
  9 10  2  0  0  0  0
  9 11  1  0  0  0  0
  1 12  1  0  0  0  0
 13 14  1  0  0  0  0
 14 15  1  0  0  0  0
 14 16  1  6  0  0  0
 16 17  1  0  0  0  0
 16 18  1  0  0  0  0
 16 19  1  0  0  0  0
  2 15  1  0  0  0  0
  3 13  1  0  0  0  0
 21 20  1  6  0  0  0
 21 22  1  0  0  0  0
 21 26  1  0  0  0  0
 22 23  1  0  0  0  0
 22 31  1  1  0  0  0
 23 24  1  0  0  0  0
 23 30  1  6  0  0  0
 24 25  1  0  0  0  0
 24 29  1  1  0  0  0
 25 26  1  0  0  0  0
 25 27  1  6  0  0  0
 27 28  1  0  0  0  0
  4 20  1  0  0  0  0
  8 32  1  0  0  0  0
 33 34  2  0  0  0  0
 33 38  1  0  0  0  0
 34 35  1  0  0  0  0
 35 36  2  0  0  0  0
 35 39  1  0  0  0  0
 36 37  1  0  0  0  0
 37 38  2  0  0  0  0
 39 40  1  0  0  0  0
  7 33  1  0  0  0  0
M  END
> <score_KierFlex>
0.516406

$$$$
suggested molecule #123
 MOE2019            2D

 34 37  0  0  1  0  0  0  0  0999 V2000
    3.4992   -1.2833    0.0000 C   0  0  0  0  0  0  0  0  0  1  0  0
    4.9992   -1.2762    0.0000 C   0  0  0  0  0  0  0  0  0  2  0  0
    5.7430    0.0263    0.0000 C   0  0  0  0  0  0  0  0  0  3  0  0
    4.9869    1.3218    0.0000 C   0  0  0  0  0  0  0  0  0  4  0  0
    3.4870    1.3147    0.0000 C   0  0  0  0  0  0  0  0  0  5  0  0
    2.7431    0.0122    0.0000 C   0  0  0  0  0  0  0  0  0  6  0  0
    1.2431    0.0051    0.0000 C   0  0  0  0  0  0  0  0  0  7  0  0
    0.4870    1.3006    0.0000 C   0  0  0  0  0  0  0  0  0  8  0  0
    1.2309    2.6032    0.0000 C   0  0  0  0  0  0  0  0  0  9  0  0
    0.4748    3.8987    0.0000 O   0  0  0  0  0  0  0  0  0 10  0  0
    2.7309    2.6102    0.0000 O   0  0  0  0  0  0  0  0  0 11  0  0
    2.9041   -2.3253    0.0000 H   0  0  0  0  0  0  0  0  0  0  0  0
    7.2117   -0.2787    0.0000 O   0  0  0  0  0  0  0  0  0  0  0  0
    7.3755   -1.7697    0.0000 C   0  0  1  0  0  0  0  0  0  0  0  0
    6.0081   -2.3862    0.0000 C   0  0  0  0  0  0  0  0  0  0  0  0
    8.6781   -2.5136    0.0000 C   0  0  0  0  0  0  0  0  0  0  0  0
    7.9342   -3.8161    0.0000 C   0  0  0  0  0  0  0  0  0  0  0  0
    9.9806   -3.2575    0.0000 C   0  0  0  0  0  0  0  0  0  0  0  0
    9.4220   -1.2110    0.0000 O   0  0  0  0  0  0  0  0  0  0  0  0
    5.7308    2.6244    0.0000 O   0  0  0  0  0  0  0  0  0  0  0  0
    4.9747    3.9198    0.0000 C   0  0  1  0  0  0  0  0  0  0  0  0
    5.7186    5.2224    0.0000 C   0  0  1  0  0  0  0  0  0  0  0  0
    4.9625    6.5179    0.0000 C   0  0  2  0  0  0  0  0  0  0  0  0
    3.4625    6.5108    0.0000 C   0  0  1  0  0  0  0  0  0  0  0  0
    2.7186    5.2083    0.0000 C   0  0  2  0  0  0  0  0  0  0  0  0
    3.4747    3.9128    0.0000 O   0  0  0  0  0  0  0  0  0  0  0  0
    1.2187    5.2012    0.0000 C   0  0  0  0  0  0  0  0  0  0  0  0
    0.4625    6.4967    0.0000 O   0  0  0  0  0  0  0  0  0  0  0  0
    2.7064    7.8063    0.0000 O   0  0  0  0  0  0  0  0  0  0  0  0
    5.7064    7.8204    0.0000 O   0  0  0  0  0  0  0  0  0  0  0  0
    7.2186    5.2295    0.0000 O   0  0  0  0  0  0  0  0  0  0  0  0
   -0.7130    1.2950    0.0000 H   0  0  0  0  0  0  0  0  0  0  0  0
    0.4992   -1.2974    0.0000 O   0  0  0  0  0  0  0  0  0  0  0  0
   -1.0008   -1.3045    0.0000 C   0  0  0  0  0  0  0  0  0  0  0  0
  1  2  2  0  0  0  0
  1  6  1  0  0  0  0
  2  3  1  0  0  0  0
  3  4  2  0  0  0  0
  4  5  1  0  0  0  0
  5  6  2  0  0  0  0
  5 11  1  0  0  0  0
  6  7  1  0  0  0  0
  7  8  2  0  0  0  0
  8  9  1  0  0  0  0
  9 10  2  0  0  0  0
  9 11  1  0  0  0  0
  1 12  1  0  0  0  0
 13 14  1  0  0  0  0
 14 15  1  0  0  0  0
 14 16  1  6  0  0  0
 16 17  1  0  0  0  0
 16 18  1  0  0  0  0
 16 19  1  0  0  0  0
  2 15  1  0  0  0  0
  3 13  1  0  0  0  0
 21 20  1  6  0  0  0
 21 22  1  0  0  0  0
 21 26  1  0  0  0  0
 22 23  1  0  0  0  0
 22 31  1  1  0  0  0
 23 24  1  0  0  0  0
 23 30  1  6  0  0  0
 24 25  1  0  0  0  0
 24 29  1  1  0  0  0
 25 26  1  0  0  0  0
 25 27  1  6  0  0  0
 27 28  1  0  0  0  0
  4 20  1  0  0  0  0
  8 32  1  0  0  0  0
 33 34  1  0  0  0  0
  7 33  1  0  0  0  0
M  END
> <score_Kier1>
0.517698

$$$$
suggested molecule #124
 MOE2019            2D

 34 37  0  0  1  0  0  0  0  0999 V2000
    3.4992   -1.2833    0.0000 C   0  0  0  0  0  0  0  0  0  1  0  0
    4.9992   -1.2762    0.0000 C   0  0  0  0  0  0  0  0  0  2  0  0
    5.7430    0.0263    0.0000 C   0  0  0  0  0  0  0  0  0  3  0  0
    4.9869    1.3218    0.0000 C   0  0  0  0  0  0  0  0  0  4  0  0
    3.4870    1.3147    0.0000 C   0  0  0  0  0  0  0  0  0  5  0  0
    2.7431    0.0122    0.0000 C   0  0  0  0  0  0  0  0  0  6  0  0
    1.2431    0.0051    0.0000 C   0  0  0  0  0  0  0  0  0  7  0  0
    0.4870    1.3006    0.0000 C   0  0  0  0  0  0  0  0  0  8  0  0
    1.2309    2.6032    0.0000 C   0  0  0  0  0  0  0  0  0  9  0  0
    0.4748    3.8987    0.0000 O   0  0  0  0  0  0  0  0  0 10  0  0
    2.7309    2.6102    0.0000 O   0  0  0  0  0  0  0  0  0 11  0  0
    2.9041   -2.3253    0.0000 H   0  0  0  0  0  0  0  0  0  0  0  0
    7.2117   -0.2787    0.0000 O   0  0  0  0  0  0  0  0  0  0  0  0
    7.3755   -1.7697    0.0000 C   0  0  1  0  0  0  0  0  0  0  0  0
    6.0081   -2.3862    0.0000 C   0  0  0  0  0  0  0  0  0  0  0  0
    8.6781   -2.5136    0.0000 C   0  0  0  0  0  0  0  0  0  0  0  0
    7.9342   -3.8161    0.0000 C   0  0  0  0  0  0  0  0  0  0  0  0
    9.9806   -3.2575    0.0000 C   0  0  0  0  0  0  0  0  0  0  0  0
    9.4220   -1.2110    0.0000 O   0  0  0  0  0  0  0  0  0  0  0  0
    5.7308    2.6244    0.0000 O   0  0  0  0  0  0  0  0  0  0  0  0
    4.9747    3.9198    0.0000 C   0  0  1  0  0  0  0  0  0  0  0  0
    5.7186    5.2224    0.0000 C   0  0  1  0  0  0  0  0  0  0  0  0
    4.9625    6.5179    0.0000 C   0  0  2  0  0  0  0  0  0  0  0  0
    3.4625    6.5108    0.0000 C   0  0  1  0  0  0  0  0  0  0  0  0
    2.7186    5.2083    0.0000 C   0  0  2  0  0  0  0  0  0  0  0  0
    3.4747    3.9128    0.0000 O   0  0  0  0  0  0  0  0  0  0  0  0
    1.2187    5.2012    0.0000 C   0  0  0  0  0  0  0  0  0  0  0  0
    0.4625    6.4967    0.0000 O   0  0  0  0  0  0  0  0  0  0  0  0
    2.7064    7.8063    0.0000 O   0  0  0  0  0  0  0  0  0  0  0  0
    5.7064    7.8204    0.0000 O   0  0  0  0  0  0  0  0  0  0  0  0
    7.2186    5.2295    0.0000 O   0  0  0  0  0  0  0  0  0  0  0  0
   -0.7130    1.2950    0.0000 H   0  0  0  0  0  0  0  0  0  0  0  0
    0.4992   -1.2974    0.0000 O   0  0  0  0  0  0  0  0  0  0  0  0
   -1.0008   -1.3045    0.0000 C   0  0  0  0  0  0  0  0  0  0  0  0
  1  2  2  0  0  0  0
  1  6  1  0  0  0  0
  2  3  1  0  0  0  0
  3  4  2  0  0  0  0
  4  5  1  0  0  0  0
  5  6  2  0  0  0  0
  5 11  1  0  0  0  0
  6  7  1  0  0  0  0
  7  8  2  0  0  0  0
  8  9  1  0  0  0  0
  9 10  2  0  0  0  0
  9 11  1  0  0  0  0
  1 12  1  0  0  0  0
 13 14  1  0  0  0  0
 14 15  1  0  0  0  0
 14 16  1  6  0  0  0
 16 17  1  0  0  0  0
 16 18  1  0  0  0  0
 16 19  1  0  0  0  0
  2 15  1  0  0  0  0
  3 13  1  0  0  0  0
 21 20  1  6  0  0  0
 21 22  1  0  0  0  0
 21 26  1  0  0  0  0
 22 23  1  0  0  0  0
 22 31  1  1  0  0  0
 23 24  1  0  0  0  0
 23 30  1  6  0  0  0
 24 25  1  0  0  0  0
 24 29  1  1  0  0  0
 25 26  1  0  0  0  0
 25 27  1  6  0  0  0
 27 28  1  0  0  0  0
  4 20  1  0  0  0  0
  8 32  1  0  0  0  0
 33 34  1  0  0  0  0
  7 33  1  0  0  0  0
M  END
> <score_Kier2>
0.516454

$$$$
suggested molecule #125
 MOE2019            2D

 34 37  0  0  1  0  0  0  0  0999 V2000
    3.4992   -1.2833    0.0000 C   0  0  0  0  0  0  0  0  0  1  0  0
    4.9992   -1.2762    0.0000 C   0  0  0  0  0  0  0  0  0  2  0  0
    5.7430    0.0263    0.0000 C   0  0  0  0  0  0  0  0  0  3  0  0
    4.9869    1.3218    0.0000 C   0  0  0  0  0  0  0  0  0  4  0  0
    3.4870    1.3147    0.0000 C   0  0  0  0  0  0  0  0  0  5  0  0
    2.7431    0.0122    0.0000 C   0  0  0  0  0  0  0  0  0  6  0  0
    1.2431    0.0051    0.0000 C   0  0  0  0  0  0  0  0  0  7  0  0
    0.4870    1.3006    0.0000 C   0  0  0  0  0  0  0  0  0  8  0  0
    1.2309    2.6032    0.0000 C   0  0  0  0  0  0  0  0  0  9  0  0
    0.4748    3.8987    0.0000 O   0  0  0  0  0  0  0  0  0 10  0  0
    2.7309    2.6102    0.0000 O   0  0  0  0  0  0  0  0  0 11  0  0
    2.9041   -2.3253    0.0000 H   0  0  0  0  0  0  0  0  0  0  0  0
    7.2117   -0.2787    0.0000 O   0  0  0  0  0  0  0  0  0  0  0  0
    7.3755   -1.7697    0.0000 C   0  0  1  0  0  0  0  0  0  0  0  0
    6.0081   -2.3862    0.0000 C   0  0  0  0  0  0  0  0  0  0  0  0
    8.6781   -2.5136    0.0000 C   0  0  0  0  0  0  0  0  0  0  0  0
    7.9342   -3.8161    0.0000 C   0  0  0  0  0  0  0  0  0  0  0  0
    9.9806   -3.2575    0.0000 C   0  0  0  0  0  0  0  0  0  0  0  0
    9.4220   -1.2110    0.0000 O   0  0  0  0  0  0  0  0  0  0  0  0
    5.7308    2.6244    0.0000 O   0  0  0  0  0  0  0  0  0  0  0  0
    4.9747    3.9198    0.0000 C   0  0  1  0  0  0  0  0  0  0  0  0
    5.7186    5.2224    0.0000 C   0  0  1  0  0  0  0  0  0  0  0  0
    4.9625    6.5179    0.0000 C   0  0  2  0  0  0  0  0  0  0  0  0
    3.4625    6.5108    0.0000 C   0  0  1  0  0  0  0  0  0  0  0  0
    2.7186    5.2083    0.0000 C   0  0  2  0  0  0  0  0  0  0  0  0
    3.4747    3.9128    0.0000 O   0  0  0  0  0  0  0  0  0  0  0  0
    1.2187    5.2012    0.0000 C   0  0  0  0  0  0  0  0  0  0  0  0
    0.4625    6.4967    0.0000 O   0  0  0  0  0  0  0  0  0  0  0  0
    2.7064    7.8063    0.0000 O   0  0  0  0  0  0  0  0  0  0  0  0
    5.7064    7.8204    0.0000 O   0  0  0  0  0  0  0  0  0  0  0  0
    7.2186    5.2295    0.0000 O   0  0  0  0  0  0  0  0  0  0  0  0
   -0.7130    1.2950    0.0000 H   0  0  0  0  0  0  0  0  0  0  0  0
    0.4992   -1.2974    0.0000 O   0  0  0  0  0  0  0  0  0  0  0  0
   -1.0008   -1.3045    0.0000 C   0  0  0  0  0  0  0  0  0  0  0  0
  1  2  2  0  0  0  0
  1  6  1  0  0  0  0
  2  3  1  0  0  0  0
  3  4  2  0  0  0  0
  4  5  1  0  0  0  0
  5  6  2  0  0  0  0
  5 11  1  0  0  0  0
  6  7  1  0  0  0  0
  7  8  2  0  0  0  0
  8  9  1  0  0  0  0
  9 10  2  0  0  0  0
  9 11  1  0  0  0  0
  1 12  1  0  0  0  0
 13 14  1  0  0  0  0
 14 15  1  0  0  0  0
 14 16  1  6  0  0  0
 16 17  1  0  0  0  0
 16 18  1  0  0  0  0
 16 19  1  0  0  0  0
  2 15  1  0  0  0  0
  3 13  1  0  0  0  0
 21 20  1  6  0  0  0
 21 22  1  0  0  0  0
 21 26  1  0  0  0  0
 22 23  1  0  0  0  0
 22 31  1  1  0  0  0
 23 24  1  0  0  0  0
 23 30  1  6  0  0  0
 24 25  1  0  0  0  0
 24 29  1  1  0  0  0
 25 26  1  0  0  0  0
 25 27  1  6  0  0  0
 27 28  1  0  0  0  0
  4 20  1  0  0  0  0
  8 32  1  0  0  0  0
 33 34  1  0  0  0  0
  7 33  1  0  0  0  0
M  END
> <score_Kier3>
0.511576

$$$$
suggested molecule #126
 MOE2019            2D

 34 37  0  0  1  0  0  0  0  0999 V2000
    3.4992   -1.2833    0.0000 C   0  0  0  0  0  0  0  0  0  1  0  0
    4.9992   -1.2762    0.0000 C   0  0  0  0  0  0  0  0  0  2  0  0
    5.7430    0.0263    0.0000 C   0  0  0  0  0  0  0  0  0  3  0  0
    4.9869    1.3218    0.0000 C   0  0  0  0  0  0  0  0  0  4  0  0
    3.4870    1.3147    0.0000 C   0  0  0  0  0  0  0  0  0  5  0  0
    2.7431    0.0122    0.0000 C   0  0  0  0  0  0  0  0  0  6  0  0
    1.2431    0.0051    0.0000 C   0  0  0  0  0  0  0  0  0  7  0  0
    0.4870    1.3006    0.0000 C   0  0  0  0  0  0  0  0  0  8  0  0
    1.2309    2.6032    0.0000 C   0  0  0  0  0  0  0  0  0  9  0  0
    0.4748    3.8987    0.0000 O   0  0  0  0  0  0  0  0  0 10  0  0
    2.7309    2.6102    0.0000 O   0  0  0  0  0  0  0  0  0 11  0  0
    2.9041   -2.3253    0.0000 H   0  0  0  0  0  0  0  0  0  0  0  0
    7.2117   -0.2787    0.0000 O   0  0  0  0  0  0  0  0  0  0  0  0
    7.3755   -1.7697    0.0000 C   0  0  1  0  0  0  0  0  0  0  0  0
    6.0081   -2.3862    0.0000 C   0  0  0  0  0  0  0  0  0  0  0  0
    8.6781   -2.5136    0.0000 C   0  0  0  0  0  0  0  0  0  0  0  0
    7.9342   -3.8161    0.0000 C   0  0  0  0  0  0  0  0  0  0  0  0
    9.9806   -3.2575    0.0000 C   0  0  0  0  0  0  0  0  0  0  0  0
    9.4220   -1.2110    0.0000 O   0  0  0  0  0  0  0  0  0  0  0  0
    5.7308    2.6244    0.0000 O   0  0  0  0  0  0  0  0  0  0  0  0
    4.9747    3.9198    0.0000 C   0  0  1  0  0  0  0  0  0  0  0  0
    5.7186    5.2224    0.0000 C   0  0  1  0  0  0  0  0  0  0  0  0
    4.9625    6.5179    0.0000 C   0  0  2  0  0  0  0  0  0  0  0  0
    3.4625    6.5108    0.0000 C   0  0  1  0  0  0  0  0  0  0  0  0
    2.7186    5.2083    0.0000 C   0  0  2  0  0  0  0  0  0  0  0  0
    3.4747    3.9128    0.0000 O   0  0  0  0  0  0  0  0  0  0  0  0
    1.2187    5.2012    0.0000 C   0  0  0  0  0  0  0  0  0  0  0  0
    0.4625    6.4967    0.0000 O   0  0  0  0  0  0  0  0  0  0  0  0
    2.7064    7.8063    0.0000 O   0  0  0  0  0  0  0  0  0  0  0  0
    5.7064    7.8204    0.0000 O   0  0  0  0  0  0  0  0  0  0  0  0
    7.2186    5.2295    0.0000 O   0  0  0  0  0  0  0  0  0  0  0  0
   -0.7130    1.2950    0.0000 H   0  0  0  0  0  0  0  0  0  0  0  0
    0.4992   -1.2974    0.0000 O   0  0  0  0  0  0  0  0  0  0  0  0
   -1.0008   -1.3045    0.0000 C   0  0  0  0  0  0  0  0  0  0  0  0
  1  2  2  0  0  0  0
  1  6  1  0  0  0  0
  2  3  1  0  0  0  0
  3  4  2  0  0  0  0
  4  5  1  0  0  0  0
  5  6  2  0  0  0  0
  5 11  1  0  0  0  0
  6  7  1  0  0  0  0
  7  8  2  0  0  0  0
  8  9  1  0  0  0  0
  9 10  2  0  0  0  0
  9 11  1  0  0  0  0
  1 12  1  0  0  0  0
 13 14  1  0  0  0  0
 14 15  1  0  0  0  0
 14 16  1  6  0  0  0
 16 17  1  0  0  0  0
 16 18  1  0  0  0  0
 16 19  1  0  0  0  0
  2 15  1  0  0  0  0
  3 13  1  0  0  0  0
 21 20  1  6  0  0  0
 21 22  1  0  0  0  0
 21 26  1  0  0  0  0
 22 23  1  0  0  0  0
 22 31  1  1  0  0  0
 23 24  1  0  0  0  0
 23 30  1  6  0  0  0
 24 25  1  0  0  0  0
 24 29  1  1  0  0  0
 25 26  1  0  0  0  0
 25 27  1  6  0  0  0
 27 28  1  0  0  0  0
  4 20  1  0  0  0  0
  8 32  1  0  0  0  0
 33 34  1  0  0  0  0
  7 33  1  0  0  0  0
M  END
> <score_KierA1>
0.517627

$$$$
suggested molecule #127
 MOE2019            2D

 34 37  0  0  1  0  0  0  0  0999 V2000
    3.4992   -1.2833    0.0000 C   0  0  0  0  0  0  0  0  0  1  0  0
    4.9992   -1.2762    0.0000 C   0  0  0  0  0  0  0  0  0  2  0  0
    5.7430    0.0263    0.0000 C   0  0  0  0  0  0  0  0  0  3  0  0
    4.9869    1.3218    0.0000 C   0  0  0  0  0  0  0  0  0  4  0  0
    3.4870    1.3147    0.0000 C   0  0  0  0  0  0  0  0  0  5  0  0
    2.7431    0.0122    0.0000 C   0  0  0  0  0  0  0  0  0  6  0  0
    1.2431    0.0051    0.0000 C   0  0  0  0  0  0  0  0  0  7  0  0
    0.4870    1.3006    0.0000 C   0  0  0  0  0  0  0  0  0  8  0  0
    1.2309    2.6032    0.0000 C   0  0  0  0  0  0  0  0  0  9  0  0
    0.4748    3.8987    0.0000 O   0  0  0  0  0  0  0  0  0 10  0  0
    2.7309    2.6102    0.0000 O   0  0  0  0  0  0  0  0  0 11  0  0
    2.9041   -2.3253    0.0000 H   0  0  0  0  0  0  0  0  0  0  0  0
    7.2117   -0.2787    0.0000 O   0  0  0  0  0  0  0  0  0  0  0  0
    7.3755   -1.7697    0.0000 C   0  0  1  0  0  0  0  0  0  0  0  0
    6.0081   -2.3862    0.0000 C   0  0  0  0  0  0  0  0  0  0  0  0
    8.6781   -2.5136    0.0000 C   0  0  0  0  0  0  0  0  0  0  0  0
    7.9342   -3.8161    0.0000 C   0  0  0  0  0  0  0  0  0  0  0  0
    9.9806   -3.2575    0.0000 C   0  0  0  0  0  0  0  0  0  0  0  0
    9.4220   -1.2110    0.0000 O   0  0  0  0  0  0  0  0  0  0  0  0
    5.7308    2.6244    0.0000 O   0  0  0  0  0  0  0  0  0  0  0  0
    4.9747    3.9198    0.0000 C   0  0  1  0  0  0  0  0  0  0  0  0
    5.7186    5.2224    0.0000 C   0  0  1  0  0  0  0  0  0  0  0  0
    4.9625    6.5179    0.0000 C   0  0  2  0  0  0  0  0  0  0  0  0
    3.4625    6.5108    0.0000 C   0  0  1  0  0  0  0  0  0  0  0  0
    2.7186    5.2083    0.0000 C   0  0  2  0  0  0  0  0  0  0  0  0
    3.4747    3.9128    0.0000 O   0  0  0  0  0  0  0  0  0  0  0  0
    1.2187    5.2012    0.0000 C   0  0  0  0  0  0  0  0  0  0  0  0
    0.4625    6.4967    0.0000 O   0  0  0  0  0  0  0  0  0  0  0  0
    2.7064    7.8063    0.0000 O   0  0  0  0  0  0  0  0  0  0  0  0
    5.7064    7.8204    0.0000 O   0  0  0  0  0  0  0  0  0  0  0  0
    7.2186    5.2295    0.0000 O   0  0  0  0  0  0  0  0  0  0  0  0
   -0.7130    1.2950    0.0000 H   0  0  0  0  0  0  0  0  0  0  0  0
    0.4992   -1.2974    0.0000 O   0  0  0  0  0  0  0  0  0  0  0  0
   -1.0008   -1.3045    0.0000 C   0  0  0  0  0  0  0  0  0  0  0  0
  1  2  2  0  0  0  0
  1  6  1  0  0  0  0
  2  3  1  0  0  0  0
  3  4  2  0  0  0  0
  4  5  1  0  0  0  0
  5  6  2  0  0  0  0
  5 11  1  0  0  0  0
  6  7  1  0  0  0  0
  7  8  2  0  0  0  0
  8  9  1  0  0  0  0
  9 10  2  0  0  0  0
  9 11  1  0  0  0  0
  1 12  1  0  0  0  0
 13 14  1  0  0  0  0
 14 15  1  0  0  0  0
 14 16  1  6  0  0  0
 16 17  1  0  0  0  0
 16 18  1  0  0  0  0
 16 19  1  0  0  0  0
  2 15  1  0  0  0  0
  3 13  1  0  0  0  0
 21 20  1  6  0  0  0
 21 22  1  0  0  0  0
 21 26  1  0  0  0  0
 22 23  1  0  0  0  0
 22 31  1  1  0  0  0
 23 24  1  0  0  0  0
 23 30  1  6  0  0  0
 24 25  1  0  0  0  0
 24 29  1  1  0  0  0
 25 26  1  0  0  0  0
 25 27  1  6  0  0  0
 27 28  1  0  0  0  0
  4 20  1  0  0  0  0
  8 32  1  0  0  0  0
 33 34  1  0  0  0  0
  7 33  1  0  0  0  0
M  END
> <score_KierA2>
0.516739

$$$$
suggested molecule #128
 MOE2019            2D

 34 37  0  0  1  0  0  0  0  0999 V2000
    3.4992   -1.2833    0.0000 C   0  0  0  0  0  0  0  0  0  1  0  0
    4.9992   -1.2762    0.0000 C   0  0  0  0  0  0  0  0  0  2  0  0
    5.7430    0.0263    0.0000 C   0  0  0  0  0  0  0  0  0  3  0  0
    4.9869    1.3218    0.0000 C   0  0  0  0  0  0  0  0  0  4  0  0
    3.4870    1.3147    0.0000 C   0  0  0  0  0  0  0  0  0  5  0  0
    2.7431    0.0122    0.0000 C   0  0  0  0  0  0  0  0  0  6  0  0
    1.2431    0.0051    0.0000 C   0  0  0  0  0  0  0  0  0  7  0  0
    0.4870    1.3006    0.0000 C   0  0  0  0  0  0  0  0  0  8  0  0
    1.2309    2.6032    0.0000 C   0  0  0  0  0  0  0  0  0  9  0  0
    0.4748    3.8987    0.0000 O   0  0  0  0  0  0  0  0  0 10  0  0
    2.7309    2.6102    0.0000 O   0  0  0  0  0  0  0  0  0 11  0  0
    2.9041   -2.3253    0.0000 H   0  0  0  0  0  0  0  0  0  0  0  0
    7.2117   -0.2787    0.0000 O   0  0  0  0  0  0  0  0  0  0  0  0
    7.3755   -1.7697    0.0000 C   0  0  1  0  0  0  0  0  0  0  0  0
    6.0081   -2.3862    0.0000 C   0  0  0  0  0  0  0  0  0  0  0  0
    8.6781   -2.5136    0.0000 C   0  0  0  0  0  0  0  0  0  0  0  0
    7.9342   -3.8161    0.0000 C   0  0  0  0  0  0  0  0  0  0  0  0
    9.9806   -3.2575    0.0000 C   0  0  0  0  0  0  0  0  0  0  0  0
    9.4220   -1.2110    0.0000 O   0  0  0  0  0  0  0  0  0  0  0  0
    5.7308    2.6244    0.0000 O   0  0  0  0  0  0  0  0  0  0  0  0
    4.9747    3.9198    0.0000 C   0  0  1  0  0  0  0  0  0  0  0  0
    5.7186    5.2224    0.0000 C   0  0  1  0  0  0  0  0  0  0  0  0
    4.9625    6.5179    0.0000 C   0  0  2  0  0  0  0  0  0  0  0  0
    3.4625    6.5108    0.0000 C   0  0  1  0  0  0  0  0  0  0  0  0
    2.7186    5.2083    0.0000 C   0  0  2  0  0  0  0  0  0  0  0  0
    3.4747    3.9128    0.0000 O   0  0  0  0  0  0  0  0  0  0  0  0
    1.2187    5.2012    0.0000 C   0  0  0  0  0  0  0  0  0  0  0  0
    0.4625    6.4967    0.0000 O   0  0  0  0  0  0  0  0  0  0  0  0
    2.7064    7.8063    0.0000 O   0  0  0  0  0  0  0  0  0  0  0  0
    5.7064    7.8204    0.0000 O   0  0  0  0  0  0  0  0  0  0  0  0
    7.2186    5.2295    0.0000 O   0  0  0  0  0  0  0  0  0  0  0  0
   -0.7130    1.2950    0.0000 H   0  0  0  0  0  0  0  0  0  0  0  0
    0.4992   -1.2974    0.0000 O   0  0  0  0  0  0  0  0  0  0  0  0
   -1.0008   -1.3045    0.0000 C   0  0  0  0  0  0  0  0  0  0  0  0
  1  2  2  0  0  0  0
  1  6  1  0  0  0  0
  2  3  1  0  0  0  0
  3  4  2  0  0  0  0
  4  5  1  0  0  0  0
  5  6  2  0  0  0  0
  5 11  1  0  0  0  0
  6  7  1  0  0  0  0
  7  8  2  0  0  0  0
  8  9  1  0  0  0  0
  9 10  2  0  0  0  0
  9 11  1  0  0  0  0
  1 12  1  0  0  0  0
 13 14  1  0  0  0  0
 14 15  1  0  0  0  0
 14 16  1  6  0  0  0
 16 17  1  0  0  0  0
 16 18  1  0  0  0  0
 16 19  1  0  0  0  0
  2 15  1  0  0  0  0
  3 13  1  0  0  0  0
 21 20  1  6  0  0  0
 21 22  1  0  0  0  0
 21 26  1  0  0  0  0
 22 23  1  0  0  0  0
 22 31  1  1  0  0  0
 23 24  1  0  0  0  0
 23 30  1  6  0  0  0
 24 25  1  0  0  0  0
 24 29  1  1  0  0  0
 25 26  1  0  0  0  0
 25 27  1  6  0  0  0
 27 28  1  0  0  0  0
  4 20  1  0  0  0  0
  8 32  1  0  0  0  0
 33 34  1  0  0  0  0
  7 33  1  0  0  0  0
M  END
> <score_KierA3>
0.51219

$$$$
suggested molecule #129
 MOE2019            2D

 34 37  0  0  1  0  0  0  0  0999 V2000
    3.4992   -1.2833    0.0000 C   0  0  0  0  0  0  0  0  0  1  0  0
    4.9992   -1.2762    0.0000 C   0  0  0  0  0  0  0  0  0  2  0  0
    5.7430    0.0263    0.0000 C   0  0  0  0  0  0  0  0  0  3  0  0
    4.9869    1.3218    0.0000 C   0  0  0  0  0  0  0  0  0  4  0  0
    3.4870    1.3147    0.0000 C   0  0  0  0  0  0  0  0  0  5  0  0
    2.7431    0.0122    0.0000 C   0  0  0  0  0  0  0  0  0  6  0  0
    1.2431    0.0051    0.0000 C   0  0  0  0  0  0  0  0  0  7  0  0
    0.4870    1.3006    0.0000 C   0  0  0  0  0  0  0  0  0  8  0  0
    1.2309    2.6032    0.0000 C   0  0  0  0  0  0  0  0  0  9  0  0
    0.4748    3.8987    0.0000 O   0  0  0  0  0  0  0  0  0 10  0  0
    2.7309    2.6102    0.0000 O   0  0  0  0  0  0  0  0  0 11  0  0
    2.9041   -2.3253    0.0000 H   0  0  0  0  0  0  0  0  0  0  0  0
    7.2117   -0.2787    0.0000 O   0  0  0  0  0  0  0  0  0  0  0  0
    7.3755   -1.7697    0.0000 C   0  0  1  0  0  0  0  0  0  0  0  0
    6.0081   -2.3862    0.0000 C   0  0  0  0  0  0  0  0  0  0  0  0
    8.6781   -2.5136    0.0000 C   0  0  0  0  0  0  0  0  0  0  0  0
    7.9342   -3.8161    0.0000 C   0  0  0  0  0  0  0  0  0  0  0  0
    9.9806   -3.2575    0.0000 C   0  0  0  0  0  0  0  0  0  0  0  0
    9.4220   -1.2110    0.0000 O   0  0  0  0  0  0  0  0  0  0  0  0
    5.7308    2.6244    0.0000 O   0  0  0  0  0  0  0  0  0  0  0  0
    4.9747    3.9198    0.0000 C   0  0  1  0  0  0  0  0  0  0  0  0
    5.7186    5.2224    0.0000 C   0  0  1  0  0  0  0  0  0  0  0  0
    4.9625    6.5179    0.0000 C   0  0  2  0  0  0  0  0  0  0  0  0
    3.4625    6.5108    0.0000 C   0  0  1  0  0  0  0  0  0  0  0  0
    2.7186    5.2083    0.0000 C   0  0  2  0  0  0  0  0  0  0  0  0
    3.4747    3.9128    0.0000 O   0  0  0  0  0  0  0  0  0  0  0  0
    1.2187    5.2012    0.0000 C   0  0  0  0  0  0  0  0  0  0  0  0
    0.4625    6.4967    0.0000 O   0  0  0  0  0  0  0  0  0  0  0  0
    2.7064    7.8063    0.0000 O   0  0  0  0  0  0  0  0  0  0  0  0
    5.7064    7.8204    0.0000 O   0  0  0  0  0  0  0  0  0  0  0  0
    7.2186    5.2295    0.0000 O   0  0  0  0  0  0  0  0  0  0  0  0
   -0.7130    1.2950    0.0000 H   0  0  0  0  0  0  0  0  0  0  0  0
    0.4992   -1.2974    0.0000 O   0  0  0  0  0  0  0  0  0  0  0  0
   -1.0008   -1.3045    0.0000 C   0  0  0  0  0  0  0  0  0  0  0  0
  1  2  2  0  0  0  0
  1  6  1  0  0  0  0
  2  3  1  0  0  0  0
  3  4  2  0  0  0  0
  4  5  1  0  0  0  0
  5  6  2  0  0  0  0
  5 11  1  0  0  0  0
  6  7  1  0  0  0  0
  7  8  2  0  0  0  0
  8  9  1  0  0  0  0
  9 10  2  0  0  0  0
  9 11  1  0  0  0  0
  1 12  1  0  0  0  0
 13 14  1  0  0  0  0
 14 15  1  0  0  0  0
 14 16  1  6  0  0  0
 16 17  1  0  0  0  0
 16 18  1  0  0  0  0
 16 19  1  0  0  0  0
  2 15  1  0  0  0  0
  3 13  1  0  0  0  0
 21 20  1  6  0  0  0
 21 22  1  0  0  0  0
 21 26  1  0  0  0  0
 22 23  1  0  0  0  0
 22 31  1  1  0  0  0
 23 24  1  0  0  0  0
 23 30  1  6  0  0  0
 24 25  1  0  0  0  0
 24 29  1  1  0  0  0
 25 26  1  0  0  0  0
 25 27  1  6  0  0  0
 27 28  1  0  0  0  0
  4 20  1  0  0  0  0
  8 32  1  0  0  0  0
 33 34  1  0  0  0  0
  7 33  1  0  0  0  0
M  END
> <score_KierFlex>
0.516379

$$$$
suggested molecule #130
 MOE2019            2D

 43 47  0  0  1  0  0  0  0  0999 V2000
    3.4992   -1.2833    0.0000 C   0  0  0  0  0  0  0  0  0  1  0  0
    4.9992   -1.2762    0.0000 C   0  0  0  0  0  0  0  0  0  2  0  0
    5.7430    0.0263    0.0000 C   0  0  0  0  0  0  0  0  0  3  0  0
    4.9869    1.3218    0.0000 C   0  0  0  0  0  0  0  0  0  4  0  0
    3.4870    1.3147    0.0000 C   0  0  0  0  0  0  0  0  0  5  0  0
    2.7431    0.0122    0.0000 C   0  0  0  0  0  0  0  0  0  6  0  0
    1.2431    0.0051    0.0000 C   0  0  0  0  0  0  0  0  0  7  0  0
    0.4870    1.3006    0.0000 C   0  0  0  0  0  0  0  0  0  8  0  0
    1.2309    2.6032    0.0000 C   0  0  0  0  0  0  0  0  0  9  0  0
    0.4748    3.8987    0.0000 O   0  0  0  0  0  0  0  0  0 10  0  0
    2.7309    2.6102    0.0000 O   0  0  0  0  0  0  0  0  0 11  0  0
    2.9041   -2.3253    0.0000 H   0  0  0  0  0  0  0  0  0  0  0  0
    7.2117   -0.2787    0.0000 O   0  0  0  0  0  0  0  0  0  0  0  0
    7.3755   -1.7697    0.0000 C   0  0  1  0  0  0  0  0  0  0  0  0
    6.0081   -2.3862    0.0000 C   0  0  0  0  0  0  0  0  0  0  0  0
    8.6781   -2.5136    0.0000 C   0  0  0  0  0  0  0  0  0  0  0  0
    9.4220   -1.2110    0.0000 C   0  0  0  0  0  0  0  0  0  0  0  0
    7.9342   -3.8161    0.0000 C   0  0  0  0  0  0  0  0  0  0  0  0
    9.9806   -3.2575    0.0000 O   0  0  0  0  0  0  0  0  0  0  0  0
    5.7308    2.6244    0.0000 O   0  0  0  0  0  0  0  0  0  0  0  0
    7.2308    2.6314    0.0000 C   0  0  1  0  0  0  0  0  0  0  0  0
    7.9747    3.9340    0.0000 C   0  0  1  0  0  0  0  0  0  0  0  0
    9.4747    3.9410    0.0000 C   0  0  2  0  0  0  0  0  0  0  0  0
   10.2308    2.6455    0.0000 C   0  0  1  0  0  0  0  0  0  0  0  0
    9.4869    1.3430    0.0000 C   0  0  2  0  0  0  0  0  0  0  0  0
    7.9869    1.3359    0.0000 O   0  0  0  0  0  0  0  0  0  0  0  0
   10.2430    0.0475    0.0000 C   0  0  0  0  0  0  0  0  0  0  0  0
   11.7430    0.0545    0.0000 O   0  0  0  0  0  0  0  0  0  0  0  0
   11.7308    2.6526    0.0000 O   0  0  0  0  0  0  0  0  0  0  0  0
   10.2186    5.2436    0.0000 O   0  0  0  0  0  0  0  0  0  0  0  0
    7.2186    5.2295    0.0000 O   0  0  0  0  0  0  0  0  0  0  0  0
   -0.7130    1.2950    0.0000 H   0  0  0  0  0  0  0  0  0  0  0  0
    0.4992   -1.2974    0.0000 C   0  0  0  0  0  0  0  0  0  0  0  0
    1.2553   -2.5929    0.0000 C   0  0  0  0  0  0  0  0  0  0  0  0
    0.5114   -3.8955    0.0000 C   0  0  0  0  0  0  0  0  0  0  0  0
   -0.9886   -3.9025    0.0000 C   0  0  0  0  0  0  0  0  0  0  0  0
   -1.7447   -2.6070    0.0000 C   0  0  0  0  0  0  0  0  0  0  0  0
   -1.0008   -1.3045    0.0000 C   0  0  0  0  0  0  0  0  0  0  0  0
   -3.2446   -2.6141    0.0000 O   0  0  0  0  0  0  0  0  0  0  0  0
   -4.0007   -1.3186    0.0000 C   0  0  0  0  0  0  0  0  0  0  0  0
   -1.7324   -5.2051    0.0000 O   0  0  0  0  0  0  0  0  0  0  0  0
   -3.2324   -5.2121    0.0000 C   0  0  0  0  0  0  0  0  0  0  0  0
    1.2675   -5.1910    0.0000 O   0  0  0  0  0  0  0  0  0  0  0  0
  1  2  2  0  0  0  0
  1  6  1  0  0  0  0
  2  3  1  0  0  0  0
  3  4  2  0  0  0  0
  4  5  1  0  0  0  0
  5  6  2  0  0  0  0
  5 11  1  0  0  0  0
  6  7  1  0  0  0  0
  7  8  2  0  0  0  0
  8  9  1  0  0  0  0
  9 10  2  0  0  0  0
  9 11  1  0  0  0  0
  1 12  1  0  0  0  0
 13 14  1  0  0  0  0
 14 15  1  0  0  0  0
 14 16  1  6  0  0  0
 16 17  1  0  0  0  0
 16 18  1  0  0  0  0
 16 19  1  0  0  0  0
  2 15  1  0  0  0  0
  3 13  1  0  0  0  0
 21 20  1  6  0  0  0
 21 22  1  0  0  0  0
 21 26  1  0  0  0  0
 22 23  1  0  0  0  0
 22 31  1  1  0  0  0
 23 24  1  0  0  0  0
 23 30  1  6  0  0  0
 24 25  1  0  0  0  0
 24 29  1  1  0  0  0
 25 26  1  0  0  0  0
 25 27  1  6  0  0  0
 27 28  1  0  0  0  0
  4 20  1  0  0  0  0
  8 32  1  0  0  0  0
 33 34  2  0  0  0  0
 33 38  1  0  0  0  0
 34 35  1  0  0  0  0
 35 36  2  0  0  0  0
 35 43  1  0  0  0  0
 36 37  1  0  0  0  0
 36 41  1  0  0  0  0
 37 38  2  0  0  0  0
 37 39  1  0  0  0  0
 39 40  1  0  0  0  0
 41 42  1  0  0  0  0
  7 33  1  0  0  0  0
M  END
> <score_Kier3>
0.511561

$$$$
suggested molecule #131
 MOE2019            2D

 43 47  0  0  1  0  0  0  0  0999 V2000
    3.4992   -1.2833    0.0000 C   0  0  0  0  0  0  0  0  0  1  0  0
    4.9992   -1.2762    0.0000 C   0  0  0  0  0  0  0  0  0  2  0  0
    5.7430    0.0263    0.0000 C   0  0  0  0  0  0  0  0  0  3  0  0
    4.9869    1.3218    0.0000 C   0  0  0  0  0  0  0  0  0  4  0  0
    3.4870    1.3147    0.0000 C   0  0  0  0  0  0  0  0  0  5  0  0
    2.7431    0.0122    0.0000 C   0  0  0  0  0  0  0  0  0  6  0  0
    1.2431    0.0051    0.0000 C   0  0  0  0  0  0  0  0  0  7  0  0
    0.4870    1.3006    0.0000 C   0  0  0  0  0  0  0  0  0  8  0  0
    1.2309    2.6032    0.0000 C   0  0  0  0  0  0  0  0  0  9  0  0
    0.4748    3.8987    0.0000 O   0  0  0  0  0  0  0  0  0 10  0  0
    2.7309    2.6102    0.0000 O   0  0  0  0  0  0  0  0  0 11  0  0
    2.9041   -2.3253    0.0000 H   0  0  0  0  0  0  0  0  0  0  0  0
    7.2117   -0.2787    0.0000 O   0  0  0  0  0  0  0  0  0  0  0  0
    7.3755   -1.7697    0.0000 C   0  0  1  0  0  0  0  0  0  0  0  0
    6.0081   -2.3862    0.0000 C   0  0  0  0  0  0  0  0  0  0  0  0
    8.6781   -2.5136    0.0000 C   0  0  0  0  0  0  0  0  0  0  0  0
    9.4220   -1.2110    0.0000 C   0  0  0  0  0  0  0  0  0  0  0  0
    7.9342   -3.8161    0.0000 C   0  0  0  0  0  0  0  0  0  0  0  0
    9.9806   -3.2575    0.0000 O   0  0  0  0  0  0  0  0  0  0  0  0
    5.7308    2.6244    0.0000 O   0  0  0  0  0  0  0  0  0  0  0  0
    7.2308    2.6314    0.0000 C   0  0  1  0  0  0  0  0  0  0  0  0
    7.9747    3.9340    0.0000 C   0  0  1  0  0  0  0  0  0  0  0  0
    9.4747    3.9410    0.0000 C   0  0  2  0  0  0  0  0  0  0  0  0
   10.2308    2.6455    0.0000 C   0  0  1  0  0  0  0  0  0  0  0  0
    9.4869    1.3430    0.0000 C   0  0  2  0  0  0  0  0  0  0  0  0
    7.9869    1.3359    0.0000 O   0  0  0  0  0  0  0  0  0  0  0  0
   10.2430    0.0475    0.0000 C   0  0  0  0  0  0  0  0  0  0  0  0
   11.7430    0.0545    0.0000 O   0  0  0  0  0  0  0  0  0  0  0  0
   11.7308    2.6526    0.0000 O   0  0  0  0  0  0  0  0  0  0  0  0
   10.2186    5.2436    0.0000 O   0  0  0  0  0  0  0  0  0  0  0  0
    7.2186    5.2295    0.0000 O   0  0  0  0  0  0  0  0  0  0  0  0
   -0.7130    1.2950    0.0000 H   0  0  0  0  0  0  0  0  0  0  0  0
    0.4992   -1.2974    0.0000 C   0  0  0  0  0  0  0  0  0  0  0  0
    1.2553   -2.5929    0.0000 C   0  0  0  0  0  0  0  0  0  0  0  0
    0.5114   -3.8955    0.0000 C   0  0  0  0  0  0  0  0  0  0  0  0
   -0.9886   -3.9025    0.0000 C   0  0  0  0  0  0  0  0  0  0  0  0
   -1.7447   -2.6070    0.0000 C   0  0  0  0  0  0  0  0  0  0  0  0
   -1.0008   -1.3045    0.0000 C   0  0  0  0  0  0  0  0  0  0  0  0
   -3.2446   -2.6141    0.0000 O   0  0  0  0  0  0  0  0  0  0  0  0
   -4.0007   -1.3186    0.0000 C   0  0  0  0  0  0  0  0  0  0  0  0
   -1.7324   -5.2051    0.0000 O   0  0  0  0  0  0  0  0  0  0  0  0
   -3.2324   -5.2121    0.0000 C   0  0  0  0  0  0  0  0  0  0  0  0
    1.2675   -5.1910    0.0000 O   0  0  0  0  0  0  0  0  0  0  0  0
  1  2  2  0  0  0  0
  1  6  1  0  0  0  0
  2  3  1  0  0  0  0
  3  4  2  0  0  0  0
  4  5  1  0  0  0  0
  5  6  2  0  0  0  0
  5 11  1  0  0  0  0
  6  7  1  0  0  0  0
  7  8  2  0  0  0  0
  8  9  1  0  0  0  0
  9 10  2  0  0  0  0
  9 11  1  0  0  0  0
  1 12  1  0  0  0  0
 13 14  1  0  0  0  0
 14 15  1  0  0  0  0
 14 16  1  6  0  0  0
 16 17  1  0  0  0  0
 16 18  1  0  0  0  0
 16 19  1  0  0  0  0
  2 15  1  0  0  0  0
  3 13  1  0  0  0  0
 21 20  1  6  0  0  0
 21 22  1  0  0  0  0
 21 26  1  0  0  0  0
 22 23  1  0  0  0  0
 22 31  1  1  0  0  0
 23 24  1  0  0  0  0
 23 30  1  6  0  0  0
 24 25  1  0  0  0  0
 24 29  1  1  0  0  0
 25 26  1  0  0  0  0
 25 27  1  6  0  0  0
 27 28  1  0  0  0  0
  4 20  1  0  0  0  0
  8 32  1  0  0  0  0
 33 34  2  0  0  0  0
 33 38  1  0  0  0  0
 34 35  1  0  0  0  0
 35 36  2  0  0  0  0
 35 43  1  0  0  0  0
 36 37  1  0  0  0  0
 36 41  1  0  0  0  0
 37 38  2  0  0  0  0
 37 39  1  0  0  0  0
 39 40  1  0  0  0  0
 41 42  1  0  0  0  0
  7 33  1  0  0  0  0
M  END
> <score_KierA1>
0.517612

$$$$
suggested molecule #132
 MOE2019            2D

 43 47  0  0  1  0  0  0  0  0999 V2000
    3.4992   -1.2833    0.0000 C   0  0  0  0  0  0  0  0  0  1  0  0
    4.9992   -1.2762    0.0000 C   0  0  0  0  0  0  0  0  0  2  0  0
    5.7430    0.0263    0.0000 C   0  0  0  0  0  0  0  0  0  3  0  0
    4.9869    1.3218    0.0000 C   0  0  0  0  0  0  0  0  0  4  0  0
    3.4870    1.3147    0.0000 C   0  0  0  0  0  0  0  0  0  5  0  0
    2.7431    0.0122    0.0000 C   0  0  0  0  0  0  0  0  0  6  0  0
    1.2431    0.0051    0.0000 C   0  0  0  0  0  0  0  0  0  7  0  0
    0.4870    1.3006    0.0000 C   0  0  0  0  0  0  0  0  0  8  0  0
    1.2309    2.6032    0.0000 C   0  0  0  0  0  0  0  0  0  9  0  0
    0.4748    3.8987    0.0000 O   0  0  0  0  0  0  0  0  0 10  0  0
    2.7309    2.6102    0.0000 O   0  0  0  0  0  0  0  0  0 11  0  0
    2.9041   -2.3253    0.0000 H   0  0  0  0  0  0  0  0  0  0  0  0
    7.2117   -0.2787    0.0000 O   0  0  0  0  0  0  0  0  0  0  0  0
    7.3755   -1.7697    0.0000 C   0  0  1  0  0  0  0  0  0  0  0  0
    6.0081   -2.3862    0.0000 C   0  0  0  0  0  0  0  0  0  0  0  0
    8.6781   -2.5136    0.0000 C   0  0  0  0  0  0  0  0  0  0  0  0
    9.4220   -1.2110    0.0000 C   0  0  0  0  0  0  0  0  0  0  0  0
    7.9342   -3.8161    0.0000 C   0  0  0  0  0  0  0  0  0  0  0  0
    9.9806   -3.2575    0.0000 O   0  0  0  0  0  0  0  0  0  0  0  0
    5.7308    2.6244    0.0000 O   0  0  0  0  0  0  0  0  0  0  0  0
    7.2308    2.6314    0.0000 C   0  0  1  0  0  0  0  0  0  0  0  0
    7.9747    3.9340    0.0000 C   0  0  1  0  0  0  0  0  0  0  0  0
    9.4747    3.9410    0.0000 C   0  0  2  0  0  0  0  0  0  0  0  0
   10.2308    2.6455    0.0000 C   0  0  1  0  0  0  0  0  0  0  0  0
    9.4869    1.3430    0.0000 C   0  0  2  0  0  0  0  0  0  0  0  0
    7.9869    1.3359    0.0000 O   0  0  0  0  0  0  0  0  0  0  0  0
   10.2430    0.0475    0.0000 C   0  0  0  0  0  0  0  0  0  0  0  0
   11.7430    0.0545    0.0000 O   0  0  0  0  0  0  0  0  0  0  0  0
   11.7308    2.6526    0.0000 O   0  0  0  0  0  0  0  0  0  0  0  0
   10.2186    5.2436    0.0000 O   0  0  0  0  0  0  0  0  0  0  0  0
    7.2186    5.2295    0.0000 O   0  0  0  0  0  0  0  0  0  0  0  0
   -0.7130    1.2950    0.0000 H   0  0  0  0  0  0  0  0  0  0  0  0
    0.4992   -1.2974    0.0000 C   0  0  0  0  0  0  0  0  0  0  0  0
    1.2553   -2.5929    0.0000 C   0  0  0  0  0  0  0  0  0  0  0  0
    0.5114   -3.8955    0.0000 C   0  0  0  0  0  0  0  0  0  0  0  0
   -0.9886   -3.9025    0.0000 C   0  0  0  0  0  0  0  0  0  0  0  0
   -1.7447   -2.6070    0.0000 C   0  0  0  0  0  0  0  0  0  0  0  0
   -1.0008   -1.3045    0.0000 C   0  0  0  0  0  0  0  0  0  0  0  0
   -3.2446   -2.6141    0.0000 O   0  0  0  0  0  0  0  0  0  0  0  0
   -4.0007   -1.3186    0.0000 C   0  0  0  0  0  0  0  0  0  0  0  0
   -1.7324   -5.2051    0.0000 O   0  0  0  0  0  0  0  0  0  0  0  0
   -3.2324   -5.2121    0.0000 C   0  0  0  0  0  0  0  0  0  0  0  0
    1.2675   -5.1910    0.0000 O   0  0  0  0  0  0  0  0  0  0  0  0
  1  2  2  0  0  0  0
  1  6  1  0  0  0  0
  2  3  1  0  0  0  0
  3  4  2  0  0  0  0
  4  5  1  0  0  0  0
  5  6  2  0  0  0  0
  5 11  1  0  0  0  0
  6  7  1  0  0  0  0
  7  8  2  0  0  0  0
  8  9  1  0  0  0  0
  9 10  2  0  0  0  0
  9 11  1  0  0  0  0
  1 12  1  0  0  0  0
 13 14  1  0  0  0  0
 14 15  1  0  0  0  0
 14 16  1  6  0  0  0
 16 17  1  0  0  0  0
 16 18  1  0  0  0  0
 16 19  1  0  0  0  0
  2 15  1  0  0  0  0
  3 13  1  0  0  0  0
 21 20  1  6  0  0  0
 21 22  1  0  0  0  0
 21 26  1  0  0  0  0
 22 23  1  0  0  0  0
 22 31  1  1  0  0  0
 23 24  1  0  0  0  0
 23 30  1  6  0  0  0
 24 25  1  0  0  0  0
 24 29  1  1  0  0  0
 25 26  1  0  0  0  0
 25 27  1  6  0  0  0
 27 28  1  0  0  0  0
  4 20  1  0  0  0  0
  8 32  1  0  0  0  0
 33 34  2  0  0  0  0
 33 38  1  0  0  0  0
 34 35  1  0  0  0  0
 35 36  2  0  0  0  0
 35 43  1  0  0  0  0
 36 37  1  0  0  0  0
 36 41  1  0  0  0  0
 37 38  2  0  0  0  0
 37 39  1  0  0  0  0
 39 40  1  0  0  0  0
 41 42  1  0  0  0  0
  7 33  1  0  0  0  0
M  END
> <score_KierA2>
0.516725

$$$$
suggested molecule #133
 MOE2019            2D

 43 47  0  0  1  0  0  0  0  0999 V2000
    3.4992   -1.2833    0.0000 C   0  0  0  0  0  0  0  0  0  1  0  0
    4.9992   -1.2762    0.0000 C   0  0  0  0  0  0  0  0  0  2  0  0
    5.7430    0.0263    0.0000 C   0  0  0  0  0  0  0  0  0  3  0  0
    4.9869    1.3218    0.0000 C   0  0  0  0  0  0  0  0  0  4  0  0
    3.4870    1.3147    0.0000 C   0  0  0  0  0  0  0  0  0  5  0  0
    2.7431    0.0122    0.0000 C   0  0  0  0  0  0  0  0  0  6  0  0
    1.2431    0.0051    0.0000 C   0  0  0  0  0  0  0  0  0  7  0  0
    0.4870    1.3006    0.0000 C   0  0  0  0  0  0  0  0  0  8  0  0
    1.2309    2.6032    0.0000 C   0  0  0  0  0  0  0  0  0  9  0  0
    0.4748    3.8987    0.0000 O   0  0  0  0  0  0  0  0  0 10  0  0
    2.7309    2.6102    0.0000 O   0  0  0  0  0  0  0  0  0 11  0  0
    2.9041   -2.3253    0.0000 H   0  0  0  0  0  0  0  0  0  0  0  0
    7.2117   -0.2787    0.0000 O   0  0  0  0  0  0  0  0  0  0  0  0
    7.3755   -1.7697    0.0000 C   0  0  1  0  0  0  0  0  0  0  0  0
    6.0081   -2.3862    0.0000 C   0  0  0  0  0  0  0  0  0  0  0  0
    8.6781   -2.5136    0.0000 C   0  0  0  0  0  0  0  0  0  0  0  0
    9.4220   -1.2110    0.0000 C   0  0  0  0  0  0  0  0  0  0  0  0
    7.9342   -3.8161    0.0000 C   0  0  0  0  0  0  0  0  0  0  0  0
    9.9806   -3.2575    0.0000 O   0  0  0  0  0  0  0  0  0  0  0  0
    5.7308    2.6244    0.0000 O   0  0  0  0  0  0  0  0  0  0  0  0
    7.2308    2.6314    0.0000 C   0  0  1  0  0  0  0  0  0  0  0  0
    7.9747    3.9340    0.0000 C   0  0  1  0  0  0  0  0  0  0  0  0
    9.4747    3.9410    0.0000 C   0  0  2  0  0  0  0  0  0  0  0  0
   10.2308    2.6455    0.0000 C   0  0  1  0  0  0  0  0  0  0  0  0
    9.4869    1.3430    0.0000 C   0  0  2  0  0  0  0  0  0  0  0  0
    7.9869    1.3359    0.0000 O   0  0  0  0  0  0  0  0  0  0  0  0
   10.2430    0.0475    0.0000 C   0  0  0  0  0  0  0  0  0  0  0  0
   11.7430    0.0545    0.0000 O   0  0  0  0  0  0  0  0  0  0  0  0
   11.7308    2.6526    0.0000 O   0  0  0  0  0  0  0  0  0  0  0  0
   10.2186    5.2436    0.0000 O   0  0  0  0  0  0  0  0  0  0  0  0
    7.2186    5.2295    0.0000 O   0  0  0  0  0  0  0  0  0  0  0  0
   -0.7130    1.2950    0.0000 H   0  0  0  0  0  0  0  0  0  0  0  0
    0.4992   -1.2974    0.0000 C   0  0  0  0  0  0  0  0  0  0  0  0
    1.2553   -2.5929    0.0000 C   0  0  0  0  0  0  0  0  0  0  0  0
    0.5114   -3.8955    0.0000 C   0  0  0  0  0  0  0  0  0  0  0  0
   -0.9886   -3.9025    0.0000 C   0  0  0  0  0  0  0  0  0  0  0  0
   -1.7447   -2.6070    0.0000 C   0  0  0  0  0  0  0  0  0  0  0  0
   -1.0008   -1.3045    0.0000 C   0  0  0  0  0  0  0  0  0  0  0  0
   -3.2446   -2.6141    0.0000 O   0  0  0  0  0  0  0  0  0  0  0  0
   -4.0007   -1.3186    0.0000 C   0  0  0  0  0  0  0  0  0  0  0  0
   -1.7324   -5.2051    0.0000 O   0  0  0  0  0  0  0  0  0  0  0  0
   -3.2324   -5.2121    0.0000 C   0  0  0  0  0  0  0  0  0  0  0  0
    1.2675   -5.1910    0.0000 O   0  0  0  0  0  0  0  0  0  0  0  0
  1  2  2  0  0  0  0
  1  6  1  0  0  0  0
  2  3  1  0  0  0  0
  3  4  2  0  0  0  0
  4  5  1  0  0  0  0
  5  6  2  0  0  0  0
  5 11  1  0  0  0  0
  6  7  1  0  0  0  0
  7  8  2  0  0  0  0
  8  9  1  0  0  0  0
  9 10  2  0  0  0  0
  9 11  1  0  0  0  0
  1 12  1  0  0  0  0
 13 14  1  0  0  0  0
 14 15  1  0  0  0  0
 14 16  1  6  0  0  0
 16 17  1  0  0  0  0
 16 18  1  0  0  0  0
 16 19  1  0  0  0  0
  2 15  1  0  0  0  0
  3 13  1  0  0  0  0
 21 20  1  6  0  0  0
 21 22  1  0  0  0  0
 21 26  1  0  0  0  0
 22 23  1  0  0  0  0
 22 31  1  1  0  0  0
 23 24  1  0  0  0  0
 23 30  1  6  0  0  0
 24 25  1  0  0  0  0
 24 29  1  1  0  0  0
 25 26  1  0  0  0  0
 25 27  1  6  0  0  0
 27 28  1  0  0  0  0
  4 20  1  0  0  0  0
  8 32  1  0  0  0  0
 33 34  2  0  0  0  0
 33 38  1  0  0  0  0
 34 35  1  0  0  0  0
 35 36  2  0  0  0  0
 35 43  1  0  0  0  0
 36 37  1  0  0  0  0
 36 41  1  0  0  0  0
 37 38  2  0  0  0  0
 37 39  1  0  0  0  0
 39 40  1  0  0  0  0
 41 42  1  0  0  0  0
  7 33  1  0  0  0  0
M  END
> <score_KierA3>
0.512173

$$$$
suggested molecule #134
 MOE2019            2D

 43 47  0  0  1  0  0  0  0  0999 V2000
    3.4992   -1.2833    0.0000 C   0  0  0  0  0  0  0  0  0  1  0  0
    4.9992   -1.2762    0.0000 C   0  0  0  0  0  0  0  0  0  2  0  0
    5.7430    0.0263    0.0000 C   0  0  0  0  0  0  0  0  0  3  0  0
    4.9869    1.3218    0.0000 C   0  0  0  0  0  0  0  0  0  4  0  0
    3.4870    1.3147    0.0000 C   0  0  0  0  0  0  0  0  0  5  0  0
    2.7431    0.0122    0.0000 C   0  0  0  0  0  0  0  0  0  6  0  0
    1.2431    0.0051    0.0000 C   0  0  0  0  0  0  0  0  0  7  0  0
    0.4870    1.3006    0.0000 C   0  0  0  0  0  0  0  0  0  8  0  0
    1.2309    2.6032    0.0000 C   0  0  0  0  0  0  0  0  0  9  0  0
    0.4748    3.8987    0.0000 O   0  0  0  0  0  0  0  0  0 10  0  0
    2.7309    2.6102    0.0000 O   0  0  0  0  0  0  0  0  0 11  0  0
    2.9041   -2.3253    0.0000 H   0  0  0  0  0  0  0  0  0  0  0  0
    7.2117   -0.2787    0.0000 O   0  0  0  0  0  0  0  0  0  0  0  0
    7.3755   -1.7697    0.0000 C   0  0  1  0  0  0  0  0  0  0  0  0
    6.0081   -2.3862    0.0000 C   0  0  0  0  0  0  0  0  0  0  0  0
    8.6781   -2.5136    0.0000 C   0  0  0  0  0  0  0  0  0  0  0  0
    9.4220   -1.2110    0.0000 C   0  0  0  0  0  0  0  0  0  0  0  0
    7.9342   -3.8161    0.0000 C   0  0  0  0  0  0  0  0  0  0  0  0
    9.9806   -3.2575    0.0000 O   0  0  0  0  0  0  0  0  0  0  0  0
    5.7308    2.6244    0.0000 O   0  0  0  0  0  0  0  0  0  0  0  0
    7.2308    2.6314    0.0000 C   0  0  1  0  0  0  0  0  0  0  0  0
    7.9747    3.9340    0.0000 C   0  0  1  0  0  0  0  0  0  0  0  0
    9.4747    3.9410    0.0000 C   0  0  2  0  0  0  0  0  0  0  0  0
   10.2308    2.6455    0.0000 C   0  0  1  0  0  0  0  0  0  0  0  0
    9.4869    1.3430    0.0000 C   0  0  2  0  0  0  0  0  0  0  0  0
    7.9869    1.3359    0.0000 O   0  0  0  0  0  0  0  0  0  0  0  0
   10.2430    0.0475    0.0000 C   0  0  0  0  0  0  0  0  0  0  0  0
   11.7430    0.0545    0.0000 O   0  0  0  0  0  0  0  0  0  0  0  0
   11.7308    2.6526    0.0000 O   0  0  0  0  0  0  0  0  0  0  0  0
   10.2186    5.2436    0.0000 O   0  0  0  0  0  0  0  0  0  0  0  0
    7.2186    5.2295    0.0000 O   0  0  0  0  0  0  0  0  0  0  0  0
   -0.7130    1.2950    0.0000 H   0  0  0  0  0  0  0  0  0  0  0  0
    0.4992   -1.2974    0.0000 C   0  0  0  0  0  0  0  0  0  0  0  0
    1.2553   -2.5929    0.0000 C   0  0  0  0  0  0  0  0  0  0  0  0
    0.5114   -3.8955    0.0000 C   0  0  0  0  0  0  0  0  0  0  0  0
   -0.9886   -3.9025    0.0000 C   0  0  0  0  0  0  0  0  0  0  0  0
   -1.7447   -2.6070    0.0000 C   0  0  0  0  0  0  0  0  0  0  0  0
   -1.0008   -1.3045    0.0000 C   0  0  0  0  0  0  0  0  0  0  0  0
   -3.2446   -2.6141    0.0000 O   0  0  0  0  0  0  0  0  0  0  0  0
   -4.0007   -1.3186    0.0000 C   0  0  0  0  0  0  0  0  0  0  0  0
   -1.7324   -5.2051    0.0000 O   0  0  0  0  0  0  0  0  0  0  0  0
   -3.2324   -5.2121    0.0000 C   0  0  0  0  0  0  0  0  0  0  0  0
    1.2675   -5.1910    0.0000 O   0  0  0  0  0  0  0  0  0  0  0  0
  1  2  2  0  0  0  0
  1  6  1  0  0  0  0
  2  3  1  0  0  0  0
  3  4  2  0  0  0  0
  4  5  1  0  0  0  0
  5  6  2  0  0  0  0
  5 11  1  0  0  0  0
  6  7  1  0  0  0  0
  7  8  2  0  0  0  0
  8  9  1  0  0  0  0
  9 10  2  0  0  0  0
  9 11  1  0  0  0  0
  1 12  1  0  0  0  0
 13 14  1  0  0  0  0
 14 15  1  0  0  0  0
 14 16  1  6  0  0  0
 16 17  1  0  0  0  0
 16 18  1  0  0  0  0
 16 19  1  0  0  0  0
  2 15  1  0  0  0  0
  3 13  1  0  0  0  0
 21 20  1  6  0  0  0
 21 22  1  0  0  0  0
 21 26  1  0  0  0  0
 22 23  1  0  0  0  0
 22 31  1  1  0  0  0
 23 24  1  0  0  0  0
 23 30  1  6  0  0  0
 24 25  1  0  0  0  0
 24 29  1  1  0  0  0
 25 26  1  0  0  0  0
 25 27  1  6  0  0  0
 27 28  1  0  0  0  0
  4 20  1  0  0  0  0
  8 32  1  0  0  0  0
 33 34  2  0  0  0  0
 33 38  1  0  0  0  0
 34 35  1  0  0  0  0
 35 36  2  0  0  0  0
 35 43  1  0  0  0  0
 36 37  1  0  0  0  0
 36 41  1  0  0  0  0
 37 38  2  0  0  0  0
 37 39  1  0  0  0  0
 39 40  1  0  0  0  0
 41 42  1  0  0  0  0
  7 33  1  0  0  0  0
M  END
> <score_KierFlex>
0.516357

$$$$
suggested molecule #135
 MOE2019            2D

 33 36  0  0  1  0  0  0  0  0999 V2000
    3.4992   -1.2833    0.0000 C   0  0  0  0  0  0  0  0  0  1  0  0
    4.9992   -1.2762    0.0000 C   0  0  0  0  0  0  0  0  0  2  0  0
    5.7430    0.0263    0.0000 C   0  0  0  0  0  0  0  0  0  3  0  0
    4.9869    1.3218    0.0000 C   0  0  0  0  0  0  0  0  0  4  0  0
    3.4870    1.3147    0.0000 C   0  0  0  0  0  0  0  0  0  5  0  0
    2.7431    0.0122    0.0000 C   0  0  0  0  0  0  0  0  0  6  0  0
    1.2431    0.0051    0.0000 C   0  0  0  0  0  0  0  0  0  7  0  0
    0.4870    1.3006    0.0000 C   0  0  0  0  0  0  0  0  0  8  0  0
    1.2309    2.6032    0.0000 C   0  0  0  0  0  0  0  0  0  9  0  0
    0.4748    3.8987    0.0000 O   0  0  0  0  0  0  0  0  0 10  0  0
    2.7309    2.6102    0.0000 O   0  0  0  0  0  0  0  0  0 11  0  0
    2.9041   -2.3253    0.0000 H   0  0  0  0  0  0  0  0  0  0  0  0
    7.2117   -0.2787    0.0000 O   0  0  0  0  0  0  0  0  0  0  0  0
    7.3755   -1.7697    0.0000 C   0  0  1  0  0  0  0  0  0  0  0  0
    6.0081   -2.3862    0.0000 C   0  0  0  0  0  0  0  0  0  0  0  0
    8.6781   -2.5136    0.0000 C   0  0  0  0  0  0  0  0  0  0  0  0
    7.9342   -3.8161    0.0000 C   0  0  0  0  0  0  0  0  0  0  0  0
    9.9806   -3.2575    0.0000 C   0  0  0  0  0  0  0  0  0  0  0  0
    9.4220   -1.2110    0.0000 O   0  0  0  0  0  0  0  0  0  0  0  0
    5.7308    2.6244    0.0000 O   0  0  0  0  0  0  0  0  0  0  0  0
    4.9747    3.9198    0.0000 C   0  0  1  0  0  0  0  0  0  0  0  0
    5.7186    5.2224    0.0000 C   0  0  1  0  0  0  0  0  0  0  0  0
    4.9625    6.5179    0.0000 C   0  0  2  0  0  0  0  0  0  0  0  0
    3.4625    6.5108    0.0000 C   0  0  1  0  0  0  0  0  0  0  0  0
    2.7186    5.2083    0.0000 C   0  0  2  0  0  0  0  0  0  0  0  0
    3.4747    3.9128    0.0000 O   0  0  0  0  0  0  0  0  0  0  0  0
    1.2187    5.2012    0.0000 C   0  0  0  0  0  0  0  0  0  0  0  0
    0.4625    6.4967    0.0000 O   0  0  0  0  0  0  0  0  0  0  0  0
    2.7064    7.8063    0.0000 O   0  0  0  0  0  0  0  0  0  0  0  0
    5.7064    7.8204    0.0000 O   0  0  0  0  0  0  0  0  0  0  0  0
    7.2186    5.2295    0.0000 O   0  0  0  0  0  0  0  0  0  0  0  0
   -0.7130    1.2950    0.0000 H   0  0  0  0  0  0  0  0  0  0  0  0
    0.4992   -1.2974    0.0000 O   0  0  0  0  0  0  0  0  0  0  0  0
  1  2  2  0  0  0  0
  1  6  1  0  0  0  0
  2  3  1  0  0  0  0
  3  4  2  0  0  0  0
  4  5  1  0  0  0  0
  5  6  2  0  0  0  0
  5 11  1  0  0  0  0
  6  7  1  0  0  0  0
  7  8  2  0  0  0  0
  8  9  1  0  0  0  0
  9 10  2  0  0  0  0
  9 11  1  0  0  0  0
  1 12  1  0  0  0  0
 13 14  1  0  0  0  0
 14 15  1  0  0  0  0
 14 16  1  6  0  0  0
 16 17  1  0  0  0  0
 16 18  1  0  0  0  0
 16 19  1  0  0  0  0
  2 15  1  0  0  0  0
  3 13  1  0  0  0  0
 21 20  1  6  0  0  0
 21 22  1  0  0  0  0
 21 26  1  0  0  0  0
 22 23  1  0  0  0  0
 22 31  1  1  0  0  0
 23 24  1  0  0  0  0
 23 30  1  6  0  0  0
 24 25  1  0  0  0  0
 24 29  1  1  0  0  0
 25 26  1  0  0  0  0
 25 27  1  6  0  0  0
 27 28  1  0  0  0  0
  4 20  1  0  0  0  0
  8 32  1  0  0  0  0
  7 33  1  0  0  0  0
M  END
> <score_Kier2>
0.516453

$$$$
suggested molecule #136
 MOE2019            2D

 33 36  0  0  1  0  0  0  0  0999 V2000
    3.4992   -1.2833    0.0000 C   0  0  0  0  0  0  0  0  0  1  0  0
    4.9992   -1.2762    0.0000 C   0  0  0  0  0  0  0  0  0  2  0  0
    5.7430    0.0263    0.0000 C   0  0  0  0  0  0  0  0  0  3  0  0
    4.9869    1.3218    0.0000 C   0  0  0  0  0  0  0  0  0  4  0  0
    3.4870    1.3147    0.0000 C   0  0  0  0  0  0  0  0  0  5  0  0
    2.7431    0.0122    0.0000 C   0  0  0  0  0  0  0  0  0  6  0  0
    1.2431    0.0051    0.0000 C   0  0  0  0  0  0  0  0  0  7  0  0
    0.4870    1.3006    0.0000 C   0  0  0  0  0  0  0  0  0  8  0  0
    1.2309    2.6032    0.0000 C   0  0  0  0  0  0  0  0  0  9  0  0
    0.4748    3.8987    0.0000 O   0  0  0  0  0  0  0  0  0 10  0  0
    2.7309    2.6102    0.0000 O   0  0  0  0  0  0  0  0  0 11  0  0
    2.9041   -2.3253    0.0000 H   0  0  0  0  0  0  0  0  0  0  0  0
    7.2117   -0.2787    0.0000 O   0  0  0  0  0  0  0  0  0  0  0  0
    7.3755   -1.7697    0.0000 C   0  0  1  0  0  0  0  0  0  0  0  0
    6.0081   -2.3862    0.0000 C   0  0  0  0  0  0  0  0  0  0  0  0
    8.6781   -2.5136    0.0000 C   0  0  0  0  0  0  0  0  0  0  0  0
    7.9342   -3.8161    0.0000 C   0  0  0  0  0  0  0  0  0  0  0  0
    9.9806   -3.2575    0.0000 C   0  0  0  0  0  0  0  0  0  0  0  0
    9.4220   -1.2110    0.0000 O   0  0  0  0  0  0  0  0  0  0  0  0
    5.7308    2.6244    0.0000 O   0  0  0  0  0  0  0  0  0  0  0  0
    4.9747    3.9198    0.0000 C   0  0  1  0  0  0  0  0  0  0  0  0
    5.7186    5.2224    0.0000 C   0  0  1  0  0  0  0  0  0  0  0  0
    4.9625    6.5179    0.0000 C   0  0  2  0  0  0  0  0  0  0  0  0
    3.4625    6.5108    0.0000 C   0  0  1  0  0  0  0  0  0  0  0  0
    2.7186    5.2083    0.0000 C   0  0  2  0  0  0  0  0  0  0  0  0
    3.4747    3.9128    0.0000 O   0  0  0  0  0  0  0  0  0  0  0  0
    1.2187    5.2012    0.0000 C   0  0  0  0  0  0  0  0  0  0  0  0
    0.4625    6.4967    0.0000 O   0  0  0  0  0  0  0  0  0  0  0  0
    2.7064    7.8063    0.0000 O   0  0  0  0  0  0  0  0  0  0  0  0
    5.7064    7.8204    0.0000 O   0  0  0  0  0  0  0  0  0  0  0  0
    7.2186    5.2295    0.0000 O   0  0  0  0  0  0  0  0  0  0  0  0
   -0.7130    1.2950    0.0000 H   0  0  0  0  0  0  0  0  0  0  0  0
    0.4992   -1.2974    0.0000 O   0  0  0  0  0  0  0  0  0  0  0  0
  1  2  2  0  0  0  0
  1  6  1  0  0  0  0
  2  3  1  0  0  0  0
  3  4  2  0  0  0  0
  4  5  1  0  0  0  0
  5  6  2  0  0  0  0
  5 11  1  0  0  0  0
  6  7  1  0  0  0  0
  7  8  2  0  0  0  0
  8  9  1  0  0  0  0
  9 10  2  0  0  0  0
  9 11  1  0  0  0  0
  1 12  1  0  0  0  0
 13 14  1  0  0  0  0
 14 15  1  0  0  0  0
 14 16  1  6  0  0  0
 16 17  1  0  0  0  0
 16 18  1  0  0  0  0
 16 19  1  0  0  0  0
  2 15  1  0  0  0  0
  3 13  1  0  0  0  0
 21 20  1  6  0  0  0
 21 22  1  0  0  0  0
 21 26  1  0  0  0  0
 22 23  1  0  0  0  0
 22 31  1  1  0  0  0
 23 24  1  0  0  0  0
 23 30  1  6  0  0  0
 24 25  1  0  0  0  0
 24 29  1  1  0  0  0
 25 26  1  0  0  0  0
 25 27  1  6  0  0  0
 27 28  1  0  0  0  0
  4 20  1  0  0  0  0
  8 32  1  0  0  0  0
  7 33  1  0  0  0  0
M  END
> <score_Kier3>
0.511565

$$$$
suggested molecule #137
 MOE2019            2D

 33 36  0  0  1  0  0  0  0  0999 V2000
    3.4992   -1.2833    0.0000 C   0  0  0  0  0  0  0  0  0  1  0  0
    4.9992   -1.2762    0.0000 C   0  0  0  0  0  0  0  0  0  2  0  0
    5.7430    0.0263    0.0000 C   0  0  0  0  0  0  0  0  0  3  0  0
    4.9869    1.3218    0.0000 C   0  0  0  0  0  0  0  0  0  4  0  0
    3.4870    1.3147    0.0000 C   0  0  0  0  0  0  0  0  0  5  0  0
    2.7431    0.0122    0.0000 C   0  0  0  0  0  0  0  0  0  6  0  0
    1.2431    0.0051    0.0000 C   0  0  0  0  0  0  0  0  0  7  0  0
    0.4870    1.3006    0.0000 C   0  0  0  0  0  0  0  0  0  8  0  0
    1.2309    2.6032    0.0000 C   0  0  0  0  0  0  0  0  0  9  0  0
    0.4748    3.8987    0.0000 O   0  0  0  0  0  0  0  0  0 10  0  0
    2.7309    2.6102    0.0000 O   0  0  0  0  0  0  0  0  0 11  0  0
    2.9041   -2.3253    0.0000 H   0  0  0  0  0  0  0  0  0  0  0  0
    7.2117   -0.2787    0.0000 O   0  0  0  0  0  0  0  0  0  0  0  0
    7.3755   -1.7697    0.0000 C   0  0  1  0  0  0  0  0  0  0  0  0
    6.0081   -2.3862    0.0000 C   0  0  0  0  0  0  0  0  0  0  0  0
    8.6781   -2.5136    0.0000 C   0  0  0  0  0  0  0  0  0  0  0  0
    7.9342   -3.8161    0.0000 C   0  0  0  0  0  0  0  0  0  0  0  0
    9.9806   -3.2575    0.0000 C   0  0  0  0  0  0  0  0  0  0  0  0
    9.4220   -1.2110    0.0000 O   0  0  0  0  0  0  0  0  0  0  0  0
    5.7308    2.6244    0.0000 O   0  0  0  0  0  0  0  0  0  0  0  0
    4.9747    3.9198    0.0000 C   0  0  1  0  0  0  0  0  0  0  0  0
    5.7186    5.2224    0.0000 C   0  0  1  0  0  0  0  0  0  0  0  0
    4.9625    6.5179    0.0000 C   0  0  2  0  0  0  0  0  0  0  0  0
    3.4625    6.5108    0.0000 C   0  0  1  0  0  0  0  0  0  0  0  0
    2.7186    5.2083    0.0000 C   0  0  2  0  0  0  0  0  0  0  0  0
    3.4747    3.9128    0.0000 O   0  0  0  0  0  0  0  0  0  0  0  0
    1.2187    5.2012    0.0000 C   0  0  0  0  0  0  0  0  0  0  0  0
    0.4625    6.4967    0.0000 O   0  0  0  0  0  0  0  0  0  0  0  0
    2.7064    7.8063    0.0000 O   0  0  0  0  0  0  0  0  0  0  0  0
    5.7064    7.8204    0.0000 O   0  0  0  0  0  0  0  0  0  0  0  0
    7.2186    5.2295    0.0000 O   0  0  0  0  0  0  0  0  0  0  0  0
   -0.7130    1.2950    0.0000 H   0  0  0  0  0  0  0  0  0  0  0  0
    0.4992   -1.2974    0.0000 O   0  0  0  0  0  0  0  0  0  0  0  0
  1  2  2  0  0  0  0
  1  6  1  0  0  0  0
  2  3  1  0  0  0  0
  3  4  2  0  0  0  0
  4  5  1  0  0  0  0
  5  6  2  0  0  0  0
  5 11  1  0  0  0  0
  6  7  1  0  0  0  0
  7  8  2  0  0  0  0
  8  9  1  0  0  0  0
  9 10  2  0  0  0  0
  9 11  1  0  0  0  0
  1 12  1  0  0  0  0
 13 14  1  0  0  0  0
 14 15  1  0  0  0  0
 14 16  1  6  0  0  0
 16 17  1  0  0  0  0
 16 18  1  0  0  0  0
 16 19  1  0  0  0  0
  2 15  1  0  0  0  0
  3 13  1  0  0  0  0
 21 20  1  6  0  0  0
 21 22  1  0  0  0  0
 21 26  1  0  0  0  0
 22 23  1  0  0  0  0
 22 31  1  1  0  0  0
 23 24  1  0  0  0  0
 23 30  1  6  0  0  0
 24 25  1  0  0  0  0
 24 29  1  1  0  0  0
 25 26  1  0  0  0  0
 25 27  1  6  0  0  0
 27 28  1  0  0  0  0
  4 20  1  0  0  0  0
  8 32  1  0  0  0  0
  7 33  1  0  0  0  0
M  END
> <score_KierA1>
0.517617

$$$$
suggested molecule #138
 MOE2019            2D

 33 36  0  0  1  0  0  0  0  0999 V2000
    3.4992   -1.2833    0.0000 C   0  0  0  0  0  0  0  0  0  1  0  0
    4.9992   -1.2762    0.0000 C   0  0  0  0  0  0  0  0  0  2  0  0
    5.7430    0.0263    0.0000 C   0  0  0  0  0  0  0  0  0  3  0  0
    4.9869    1.3218    0.0000 C   0  0  0  0  0  0  0  0  0  4  0  0
    3.4870    1.3147    0.0000 C   0  0  0  0  0  0  0  0  0  5  0  0
    2.7431    0.0122    0.0000 C   0  0  0  0  0  0  0  0  0  6  0  0
    1.2431    0.0051    0.0000 C   0  0  0  0  0  0  0  0  0  7  0  0
    0.4870    1.3006    0.0000 C   0  0  0  0  0  0  0  0  0  8  0  0
    1.2309    2.6032    0.0000 C   0  0  0  0  0  0  0  0  0  9  0  0
    0.4748    3.8987    0.0000 O   0  0  0  0  0  0  0  0  0 10  0  0
    2.7309    2.6102    0.0000 O   0  0  0  0  0  0  0  0  0 11  0  0
    2.9041   -2.3253    0.0000 H   0  0  0  0  0  0  0  0  0  0  0  0
    7.2117   -0.2787    0.0000 O   0  0  0  0  0  0  0  0  0  0  0  0
    7.3755   -1.7697    0.0000 C   0  0  1  0  0  0  0  0  0  0  0  0
    6.0081   -2.3862    0.0000 C   0  0  0  0  0  0  0  0  0  0  0  0
    8.6781   -2.5136    0.0000 C   0  0  0  0  0  0  0  0  0  0  0  0
    7.9342   -3.8161    0.0000 C   0  0  0  0  0  0  0  0  0  0  0  0
    9.9806   -3.2575    0.0000 C   0  0  0  0  0  0  0  0  0  0  0  0
    9.4220   -1.2110    0.0000 O   0  0  0  0  0  0  0  0  0  0  0  0
    5.7308    2.6244    0.0000 O   0  0  0  0  0  0  0  0  0  0  0  0
    4.9747    3.9198    0.0000 C   0  0  1  0  0  0  0  0  0  0  0  0
    5.7186    5.2224    0.0000 C   0  0  1  0  0  0  0  0  0  0  0  0
    4.9625    6.5179    0.0000 C   0  0  2  0  0  0  0  0  0  0  0  0
    3.4625    6.5108    0.0000 C   0  0  1  0  0  0  0  0  0  0  0  0
    2.7186    5.2083    0.0000 C   0  0  2  0  0  0  0  0  0  0  0  0
    3.4747    3.9128    0.0000 O   0  0  0  0  0  0  0  0  0  0  0  0
    1.2187    5.2012    0.0000 C   0  0  0  0  0  0  0  0  0  0  0  0
    0.4625    6.4967    0.0000 O   0  0  0  0  0  0  0  0  0  0  0  0
    2.7064    7.8063    0.0000 O   0  0  0  0  0  0  0  0  0  0  0  0
    5.7064    7.8204    0.0000 O   0  0  0  0  0  0  0  0  0  0  0  0
    7.2186    5.2295    0.0000 O   0  0  0  0  0  0  0  0  0  0  0  0
   -0.7130    1.2950    0.0000 H   0  0  0  0  0  0  0  0  0  0  0  0
    0.4992   -1.2974    0.0000 O   0  0  0  0  0  0  0  0  0  0  0  0
  1  2  2  0  0  0  0
  1  6  1  0  0  0  0
  2  3  1  0  0  0  0
  3  4  2  0  0  0  0
  4  5  1  0  0  0  0
  5  6  2  0  0  0  0
  5 11  1  0  0  0  0
  6  7  1  0  0  0  0
  7  8  2  0  0  0  0
  8  9  1  0  0  0  0
  9 10  2  0  0  0  0
  9 11  1  0  0  0  0
  1 12  1  0  0  0  0
 13 14  1  0  0  0  0
 14 15  1  0  0  0  0
 14 16  1  6  0  0  0
 16 17  1  0  0  0  0
 16 18  1  0  0  0  0
 16 19  1  0  0  0  0
  2 15  1  0  0  0  0
  3 13  1  0  0  0  0
 21 20  1  6  0  0  0
 21 22  1  0  0  0  0
 21 26  1  0  0  0  0
 22 23  1  0  0  0  0
 22 31  1  1  0  0  0
 23 24  1  0  0  0  0
 23 30  1  6  0  0  0
 24 25  1  0  0  0  0
 24 29  1  1  0  0  0
 25 26  1  0  0  0  0
 25 27  1  6  0  0  0
 27 28  1  0  0  0  0
  4 20  1  0  0  0  0
  8 32  1  0  0  0  0
  7 33  1  0  0  0  0
M  END
> <score_KierA2>
0.516739

$$$$
suggested molecule #139
 MOE2019            2D

 33 36  0  0  1  0  0  0  0  0999 V2000
    3.4992   -1.2833    0.0000 C   0  0  0  0  0  0  0  0  0  1  0  0
    4.9992   -1.2762    0.0000 C   0  0  0  0  0  0  0  0  0  2  0  0
    5.7430    0.0263    0.0000 C   0  0  0  0  0  0  0  0  0  3  0  0
    4.9869    1.3218    0.0000 C   0  0  0  0  0  0  0  0  0  4  0  0
    3.4870    1.3147    0.0000 C   0  0  0  0  0  0  0  0  0  5  0  0
    2.7431    0.0122    0.0000 C   0  0  0  0  0  0  0  0  0  6  0  0
    1.2431    0.0051    0.0000 C   0  0  0  0  0  0  0  0  0  7  0  0
    0.4870    1.3006    0.0000 C   0  0  0  0  0  0  0  0  0  8  0  0
    1.2309    2.6032    0.0000 C   0  0  0  0  0  0  0  0  0  9  0  0
    0.4748    3.8987    0.0000 O   0  0  0  0  0  0  0  0  0 10  0  0
    2.7309    2.6102    0.0000 O   0  0  0  0  0  0  0  0  0 11  0  0
    2.9041   -2.3253    0.0000 H   0  0  0  0  0  0  0  0  0  0  0  0
    7.2117   -0.2787    0.0000 O   0  0  0  0  0  0  0  0  0  0  0  0
    7.3755   -1.7697    0.0000 C   0  0  1  0  0  0  0  0  0  0  0  0
    6.0081   -2.3862    0.0000 C   0  0  0  0  0  0  0  0  0  0  0  0
    8.6781   -2.5136    0.0000 C   0  0  0  0  0  0  0  0  0  0  0  0
    7.9342   -3.8161    0.0000 C   0  0  0  0  0  0  0  0  0  0  0  0
    9.9806   -3.2575    0.0000 C   0  0  0  0  0  0  0  0  0  0  0  0
    9.4220   -1.2110    0.0000 O   0  0  0  0  0  0  0  0  0  0  0  0
    5.7308    2.6244    0.0000 O   0  0  0  0  0  0  0  0  0  0  0  0
    4.9747    3.9198    0.0000 C   0  0  1  0  0  0  0  0  0  0  0  0
    5.7186    5.2224    0.0000 C   0  0  1  0  0  0  0  0  0  0  0  0
    4.9625    6.5179    0.0000 C   0  0  2  0  0  0  0  0  0  0  0  0
    3.4625    6.5108    0.0000 C   0  0  1  0  0  0  0  0  0  0  0  0
    2.7186    5.2083    0.0000 C   0  0  2  0  0  0  0  0  0  0  0  0
    3.4747    3.9128    0.0000 O   0  0  0  0  0  0  0  0  0  0  0  0
    1.2187    5.2012    0.0000 C   0  0  0  0  0  0  0  0  0  0  0  0
    0.4625    6.4967    0.0000 O   0  0  0  0  0  0  0  0  0  0  0  0
    2.7064    7.8063    0.0000 O   0  0  0  0  0  0  0  0  0  0  0  0
    5.7064    7.8204    0.0000 O   0  0  0  0  0  0  0  0  0  0  0  0
    7.2186    5.2295    0.0000 O   0  0  0  0  0  0  0  0  0  0  0  0
   -0.7130    1.2950    0.0000 H   0  0  0  0  0  0  0  0  0  0  0  0
    0.4992   -1.2974    0.0000 O   0  0  0  0  0  0  0  0  0  0  0  0
  1  2  2  0  0  0  0
  1  6  1  0  0  0  0
  2  3  1  0  0  0  0
  3  4  2  0  0  0  0
  4  5  1  0  0  0  0
  5  6  2  0  0  0  0
  5 11  1  0  0  0  0
  6  7  1  0  0  0  0
  7  8  2  0  0  0  0
  8  9  1  0  0  0  0
  9 10  2  0  0  0  0
  9 11  1  0  0  0  0
  1 12  1  0  0  0  0
 13 14  1  0  0  0  0
 14 15  1  0  0  0  0
 14 16  1  6  0  0  0
 16 17  1  0  0  0  0
 16 18  1  0  0  0  0
 16 19  1  0  0  0  0
  2 15  1  0  0  0  0
  3 13  1  0  0  0  0
 21 20  1  6  0  0  0
 21 22  1  0  0  0  0
 21 26  1  0  0  0  0
 22 23  1  0  0  0  0
 22 31  1  1  0  0  0
 23 24  1  0  0  0  0
 23 30  1  6  0  0  0
 24 25  1  0  0  0  0
 24 29  1  1  0  0  0
 25 26  1  0  0  0  0
 25 27  1  6  0  0  0
 27 28  1  0  0  0  0
  4 20  1  0  0  0  0
  8 32  1  0  0  0  0
  7 33  1  0  0  0  0
M  END
> <score_KierA3>
0.512179

$$$$
suggested molecule #140
 MOE2019            2D

 33 36  0  0  1  0  0  0  0  0999 V2000
    3.4992   -1.2833    0.0000 C   0  0  0  0  0  0  0  0  0  1  0  0
    4.9992   -1.2762    0.0000 C   0  0  0  0  0  0  0  0  0  2  0  0
    5.7430    0.0263    0.0000 C   0  0  0  0  0  0  0  0  0  3  0  0
    4.9869    1.3218    0.0000 C   0  0  0  0  0  0  0  0  0  4  0  0
    3.4870    1.3147    0.0000 C   0  0  0  0  0  0  0  0  0  5  0  0
    2.7431    0.0122    0.0000 C   0  0  0  0  0  0  0  0  0  6  0  0
    1.2431    0.0051    0.0000 C   0  0  0  0  0  0  0  0  0  7  0  0
    0.4870    1.3006    0.0000 C   0  0  0  0  0  0  0  0  0  8  0  0
    1.2309    2.6032    0.0000 C   0  0  0  0  0  0  0  0  0  9  0  0
    0.4748    3.8987    0.0000 O   0  0  0  0  0  0  0  0  0 10  0  0
    2.7309    2.6102    0.0000 O   0  0  0  0  0  0  0  0  0 11  0  0
    2.9041   -2.3253    0.0000 H   0  0  0  0  0  0  0  0  0  0  0  0
    7.2117   -0.2787    0.0000 O   0  0  0  0  0  0  0  0  0  0  0  0
    7.3755   -1.7697    0.0000 C   0  0  1  0  0  0  0  0  0  0  0  0
    6.0081   -2.3862    0.0000 C   0  0  0  0  0  0  0  0  0  0  0  0
    8.6781   -2.5136    0.0000 C   0  0  0  0  0  0  0  0  0  0  0  0
    7.9342   -3.8161    0.0000 C   0  0  0  0  0  0  0  0  0  0  0  0
    9.9806   -3.2575    0.0000 C   0  0  0  0  0  0  0  0  0  0  0  0
    9.4220   -1.2110    0.0000 O   0  0  0  0  0  0  0  0  0  0  0  0
    5.7308    2.6244    0.0000 O   0  0  0  0  0  0  0  0  0  0  0  0
    4.9747    3.9198    0.0000 C   0  0  1  0  0  0  0  0  0  0  0  0
    5.7186    5.2224    0.0000 C   0  0  1  0  0  0  0  0  0  0  0  0
    4.9625    6.5179    0.0000 C   0  0  2  0  0  0  0  0  0  0  0  0
    3.4625    6.5108    0.0000 C   0  0  1  0  0  0  0  0  0  0  0  0
    2.7186    5.2083    0.0000 C   0  0  2  0  0  0  0  0  0  0  0  0
    3.4747    3.9128    0.0000 O   0  0  0  0  0  0  0  0  0  0  0  0
    1.2187    5.2012    0.0000 C   0  0  0  0  0  0  0  0  0  0  0  0
    0.4625    6.4967    0.0000 O   0  0  0  0  0  0  0  0  0  0  0  0
    2.7064    7.8063    0.0000 O   0  0  0  0  0  0  0  0  0  0  0  0
    5.7064    7.8204    0.0000 O   0  0  0  0  0  0  0  0  0  0  0  0
    7.2186    5.2295    0.0000 O   0  0  0  0  0  0  0  0  0  0  0  0
   -0.7130    1.2950    0.0000 H   0  0  0  0  0  0  0  0  0  0  0  0
    0.4992   -1.2974    0.0000 O   0  0  0  0  0  0  0  0  0  0  0  0
  1  2  2  0  0  0  0
  1  6  1  0  0  0  0
  2  3  1  0  0  0  0
  3  4  2  0  0  0  0
  4  5  1  0  0  0  0
  5  6  2  0  0  0  0
  5 11  1  0  0  0  0
  6  7  1  0  0  0  0
  7  8  2  0  0  0  0
  8  9  1  0  0  0  0
  9 10  2  0  0  0  0
  9 11  1  0  0  0  0
  1 12  1  0  0  0  0
 13 14  1  0  0  0  0
 14 15  1  0  0  0  0
 14 16  1  6  0  0  0
 16 17  1  0  0  0  0
 16 18  1  0  0  0  0
 16 19  1  0  0  0  0
  2 15  1  0  0  0  0
  3 13  1  0  0  0  0
 21 20  1  6  0  0  0
 21 22  1  0  0  0  0
 21 26  1  0  0  0  0
 22 23  1  0  0  0  0
 22 31  1  1  0  0  0
 23 24  1  0  0  0  0
 23 30  1  6  0  0  0
 24 25  1  0  0  0  0
 24 29  1  1  0  0  0
 25 26  1  0  0  0  0
 25 27  1  6  0  0  0
 27 28  1  0  0  0  0
  4 20  1  0  0  0  0
  8 32  1  0  0  0  0
  7 33  1  0  0  0  0
M  END
> <score_KierFlex>
0.516378

$$$$
suggested molecule #141
 MOE2019            2D

 44 48  0  0  1  0  0  0  0  0999 V2000
    3.4992   -1.2833    0.0000 C   0  0  0  0  0  0  0  0  0  1  0  0
    4.9992   -1.2762    0.0000 C   0  0  0  0  0  0  0  0  0  2  0  0
    5.7430    0.0263    0.0000 C   0  0  0  0  0  0  0  0  0  3  0  0
    4.9869    1.3218    0.0000 C   0  0  0  0  0  0  0  0  0  4  0  0
    3.4870    1.3147    0.0000 C   0  0  0  0  0  0  0  0  0  5  0  0
    2.7431    0.0122    0.0000 C   0  0  0  0  0  0  0  0  0  6  0  0
    1.2431    0.0051    0.0000 C   0  0  0  0  0  0  0  0  0  7  0  0
    0.4870    1.3006    0.0000 C   0  0  0  0  0  0  0  0  0  8  0  0
    1.2309    2.6032    0.0000 C   0  0  0  0  0  0  0  0  0  9  0  0
    0.4748    3.8987    0.0000 O   0  0  0  0  0  0  0  0  0 10  0  0
    2.7309    2.6102    0.0000 O   0  0  0  0  0  0  0  0  0 11  0  0
    2.9041   -2.3253    0.0000 H   0  0  0  0  0  0  0  0  0  0  0  0
    7.2117   -0.2787    0.0000 O   0  0  0  0  0  0  0  0  0  0  0  0
    7.3755   -1.7697    0.0000 C   0  0  1  0  0  0  0  0  0  0  0  0
    6.0081   -2.3862    0.0000 C   0  0  0  0  0  0  0  0  0  0  0  0
    8.6781   -2.5136    0.0000 C   0  0  0  0  0  0  0  0  0  0  0  0
    9.4220   -1.2110    0.0000 C   0  0  0  0  0  0  0  0  0  0  0  0
    7.9342   -3.8161    0.0000 C   0  0  0  0  0  0  0  0  0  0  0  0
    9.9806   -3.2575    0.0000 O   0  0  0  0  0  0  0  0  0  0  0  0
    5.7308    2.6244    0.0000 O   0  0  0  0  0  0  0  0  0  0  0  0
    4.9747    3.9198    0.0000 C   0  0  1  0  0  0  0  0  0  0  0  0
    5.7186    5.2224    0.0000 C   0  0  1  0  0  0  0  0  0  0  0  0
    4.9625    6.5179    0.0000 C   0  0  2  0  0  0  0  0  0  0  0  0
    3.4625    6.5108    0.0000 C   0  0  1  0  0  0  0  0  0  0  0  0
    2.7186    5.2083    0.0000 C   0  0  2  0  0  0  0  0  0  0  0  0
    3.4747    3.9128    0.0000 O   0  0  0  0  0  0  0  0  0  0  0  0
    1.2187    5.2012    0.0000 C   0  0  0  0  0  0  0  0  0  0  0  0
    0.4625    6.4967    0.0000 O   0  0  0  0  0  0  0  0  0  0  0  0
    2.7064    7.8063    0.0000 O   0  0  0  0  0  0  0  0  0  0  0  0
    5.7064    7.8204    0.0000 O   0  0  0  0  0  0  0  0  0  0  0  0
    7.2186    5.2295    0.0000 O   0  0  0  0  0  0  0  0  0  0  0  0
   -0.7130    1.2950    0.0000 H   0  0  0  0  0  0  0  0  0  0  0  0
   -0.9886   -3.9025    0.0000 C   0  0  0  0  0  0  0  0  0  0  0  0
   -1.7324   -5.2051    0.0000 C   0  0  0  0  0  0  0  0  0  0  0  0
   -3.2324   -5.2121    0.0000 C   0  0  0  0  0  0  0  0  0  0  0  0
   -3.9885   -3.9166    0.0000 C   0  0  0  0  0  0  0  0  0  0  0  0
   -3.2446   -2.6141    0.0000 C   0  0  0  0  0  0  0  0  0  0  0  0
   -1.7447   -2.6070    0.0000 C   0  0  0  0  0  0  0  0  0  0  0  0
   -1.0008   -1.3045    0.0000 O   0  0  0  0  0  0  0  0  0  0  0  0
    0.4992   -1.2974    0.0000 C   0  0  0  0  0  0  0  0  0  0  0  0
   -5.4885   -3.9237    0.0000 O   0  0  0  0  0  0  0  0  0  0  0  0
   -6.2446   -2.6282    0.0000 C   0  0  0  0  0  0  0  0  0  0  0  0
   -3.9763   -6.5147    0.0000 O   0  0  0  0  0  0  0  0  0  0  0  0
   -3.2202   -7.8102    0.0000 C   0  0  0  0  0  0  0  0  0  0  0  0
  1  2  2  0  0  0  0
  1  6  1  0  0  0  0
  2  3  1  0  0  0  0
  3  4  2  0  0  0  0
  4  5  1  0  0  0  0
  5  6  2  0  0  0  0
  5 11  1  0  0  0  0
  6  7  1  0  0  0  0
  7  8  2  0  0  0  0
  8  9  1  0  0  0  0
  9 10  2  0  0  0  0
  9 11  1  0  0  0  0
  1 12  1  0  0  0  0
 13 14  1  0  0  0  0
 14 15  1  0  0  0  0
 14 16  1  6  0  0  0
 16 17  1  0  0  0  0
 16 18  1  0  0  0  0
 16 19  1  0  0  0  0
  2 15  1  0  0  0  0
  3 13  1  0  0  0  0
 21 20  1  6  0  0  0
 21 22  1  0  0  0  0
 21 26  1  0  0  0  0
 22 23  1  0  0  0  0
 22 31  1  1  0  0  0
 23 24  1  0  0  0  0
 23 30  1  6  0  0  0
 24 25  1  0  0  0  0
 24 29  1  1  0  0  0
 25 26  1  0  0  0  0
 25 27  1  6  0  0  0
 27 28  1  0  0  0  0
  4 20  1  0  0  0  0
  8 32  1  0  0  0  0
 33 34  1  0  0  0  0
 33 38  2  0  0  0  0
 34 35  2  0  0  0  0
 35 36  1  0  0  0  0
 35 43  1  0  0  0  0
 36 37  2  0  0  0  0
 36 41  1  0  0  0  0
 37 38  1  0  0  0  0
 38 39  1  0  0  0  0
 39 40  1  0  0  0  0
 41 42  1  0  0  0  0
 43 44  1  0  0  0  0
  7 40  1  0  0  0  0
M  END
> <score_Kier2>
0.516454

$$$$
suggested molecule #142
 MOE2019            2D

 44 48  0  0  1  0  0  0  0  0999 V2000
    3.4992   -1.2833    0.0000 C   0  0  0  0  0  0  0  0  0  1  0  0
    4.9992   -1.2762    0.0000 C   0  0  0  0  0  0  0  0  0  2  0  0
    5.7430    0.0263    0.0000 C   0  0  0  0  0  0  0  0  0  3  0  0
    4.9869    1.3218    0.0000 C   0  0  0  0  0  0  0  0  0  4  0  0
    3.4870    1.3147    0.0000 C   0  0  0  0  0  0  0  0  0  5  0  0
    2.7431    0.0122    0.0000 C   0  0  0  0  0  0  0  0  0  6  0  0
    1.2431    0.0051    0.0000 C   0  0  0  0  0  0  0  0  0  7  0  0
    0.4870    1.3006    0.0000 C   0  0  0  0  0  0  0  0  0  8  0  0
    1.2309    2.6032    0.0000 C   0  0  0  0  0  0  0  0  0  9  0  0
    0.4748    3.8987    0.0000 O   0  0  0  0  0  0  0  0  0 10  0  0
    2.7309    2.6102    0.0000 O   0  0  0  0  0  0  0  0  0 11  0  0
    2.9041   -2.3253    0.0000 H   0  0  0  0  0  0  0  0  0  0  0  0
    7.2117   -0.2787    0.0000 O   0  0  0  0  0  0  0  0  0  0  0  0
    7.3755   -1.7697    0.0000 C   0  0  1  0  0  0  0  0  0  0  0  0
    6.0081   -2.3862    0.0000 C   0  0  0  0  0  0  0  0  0  0  0  0
    8.6781   -2.5136    0.0000 C   0  0  0  0  0  0  0  0  0  0  0  0
    9.4220   -1.2110    0.0000 C   0  0  0  0  0  0  0  0  0  0  0  0
    7.9342   -3.8161    0.0000 C   0  0  0  0  0  0  0  0  0  0  0  0
    9.9806   -3.2575    0.0000 O   0  0  0  0  0  0  0  0  0  0  0  0
    5.7308    2.6244    0.0000 O   0  0  0  0  0  0  0  0  0  0  0  0
    4.9747    3.9198    0.0000 C   0  0  1  0  0  0  0  0  0  0  0  0
    5.7186    5.2224    0.0000 C   0  0  1  0  0  0  0  0  0  0  0  0
    4.9625    6.5179    0.0000 C   0  0  2  0  0  0  0  0  0  0  0  0
    3.4625    6.5108    0.0000 C   0  0  1  0  0  0  0  0  0  0  0  0
    2.7186    5.2083    0.0000 C   0  0  2  0  0  0  0  0  0  0  0  0
    3.4747    3.9128    0.0000 O   0  0  0  0  0  0  0  0  0  0  0  0
    1.2187    5.2012    0.0000 C   0  0  0  0  0  0  0  0  0  0  0  0
    0.4625    6.4967    0.0000 O   0  0  0  0  0  0  0  0  0  0  0  0
    2.7064    7.8063    0.0000 O   0  0  0  0  0  0  0  0  0  0  0  0
    5.7064    7.8204    0.0000 O   0  0  0  0  0  0  0  0  0  0  0  0
    7.2186    5.2295    0.0000 O   0  0  0  0  0  0  0  0  0  0  0  0
   -0.7130    1.2950    0.0000 H   0  0  0  0  0  0  0  0  0  0  0  0
   -0.9886   -3.9025    0.0000 C   0  0  0  0  0  0  0  0  0  0  0  0
   -1.7324   -5.2051    0.0000 C   0  0  0  0  0  0  0  0  0  0  0  0
   -3.2324   -5.2121    0.0000 C   0  0  0  0  0  0  0  0  0  0  0  0
   -3.9885   -3.9166    0.0000 C   0  0  0  0  0  0  0  0  0  0  0  0
   -3.2446   -2.6141    0.0000 C   0  0  0  0  0  0  0  0  0  0  0  0
   -1.7447   -2.6070    0.0000 C   0  0  0  0  0  0  0  0  0  0  0  0
   -1.0008   -1.3045    0.0000 O   0  0  0  0  0  0  0  0  0  0  0  0
    0.4992   -1.2974    0.0000 C   0  0  0  0  0  0  0  0  0  0  0  0
   -5.4885   -3.9237    0.0000 O   0  0  0  0  0  0  0  0  0  0  0  0
   -6.2446   -2.6282    0.0000 C   0  0  0  0  0  0  0  0  0  0  0  0
   -3.9763   -6.5147    0.0000 O   0  0  0  0  0  0  0  0  0  0  0  0
   -3.2202   -7.8102    0.0000 C   0  0  0  0  0  0  0  0  0  0  0  0
  1  2  2  0  0  0  0
  1  6  1  0  0  0  0
  2  3  1  0  0  0  0
  3  4  2  0  0  0  0
  4  5  1  0  0  0  0
  5  6  2  0  0  0  0
  5 11  1  0  0  0  0
  6  7  1  0  0  0  0
  7  8  2  0  0  0  0
  8  9  1  0  0  0  0
  9 10  2  0  0  0  0
  9 11  1  0  0  0  0
  1 12  1  0  0  0  0
 13 14  1  0  0  0  0
 14 15  1  0  0  0  0
 14 16  1  6  0  0  0
 16 17  1  0  0  0  0
 16 18  1  0  0  0  0
 16 19  1  0  0  0  0
  2 15  1  0  0  0  0
  3 13  1  0  0  0  0
 21 20  1  6  0  0  0
 21 22  1  0  0  0  0
 21 26  1  0  0  0  0
 22 23  1  0  0  0  0
 22 31  1  1  0  0  0
 23 24  1  0  0  0  0
 23 30  1  6  0  0  0
 24 25  1  0  0  0  0
 24 29  1  1  0  0  0
 25 26  1  0  0  0  0
 25 27  1  6  0  0  0
 27 28  1  0  0  0  0
  4 20  1  0  0  0  0
  8 32  1  0  0  0  0
 33 34  1  0  0  0  0
 33 38  2  0  0  0  0
 34 35  2  0  0  0  0
 35 36  1  0  0  0  0
 35 43  1  0  0  0  0
 36 37  2  0  0  0  0
 36 41  1  0  0  0  0
 37 38  1  0  0  0  0
 38 39  1  0  0  0  0
 39 40  1  0  0  0  0
 41 42  1  0  0  0  0
 43 44  1  0  0  0  0
  7 40  1  0  0  0  0
M  END
> <score_Kier3>
0.511579

$$$$
suggested molecule #143
 MOE2019            2D

 44 48  0  0  1  0  0  0  0  0999 V2000
    3.4992   -1.2833    0.0000 C   0  0  0  0  0  0  0  0  0  1  0  0
    4.9992   -1.2762    0.0000 C   0  0  0  0  0  0  0  0  0  2  0  0
    5.7430    0.0263    0.0000 C   0  0  0  0  0  0  0  0  0  3  0  0
    4.9869    1.3218    0.0000 C   0  0  0  0  0  0  0  0  0  4  0  0
    3.4870    1.3147    0.0000 C   0  0  0  0  0  0  0  0  0  5  0  0
    2.7431    0.0122    0.0000 C   0  0  0  0  0  0  0  0  0  6  0  0
    1.2431    0.0051    0.0000 C   0  0  0  0  0  0  0  0  0  7  0  0
    0.4870    1.3006    0.0000 C   0  0  0  0  0  0  0  0  0  8  0  0
    1.2309    2.6032    0.0000 C   0  0  0  0  0  0  0  0  0  9  0  0
    0.4748    3.8987    0.0000 O   0  0  0  0  0  0  0  0  0 10  0  0
    2.7309    2.6102    0.0000 O   0  0  0  0  0  0  0  0  0 11  0  0
    2.9041   -2.3253    0.0000 H   0  0  0  0  0  0  0  0  0  0  0  0
    7.2117   -0.2787    0.0000 O   0  0  0  0  0  0  0  0  0  0  0  0
    7.3755   -1.7697    0.0000 C   0  0  1  0  0  0  0  0  0  0  0  0
    6.0081   -2.3862    0.0000 C   0  0  0  0  0  0  0  0  0  0  0  0
    8.6781   -2.5136    0.0000 C   0  0  0  0  0  0  0  0  0  0  0  0
    9.4220   -1.2110    0.0000 C   0  0  0  0  0  0  0  0  0  0  0  0
    7.9342   -3.8161    0.0000 C   0  0  0  0  0  0  0  0  0  0  0  0
    9.9806   -3.2575    0.0000 O   0  0  0  0  0  0  0  0  0  0  0  0
    5.7308    2.6244    0.0000 O   0  0  0  0  0  0  0  0  0  0  0  0
    4.9747    3.9198    0.0000 C   0  0  1  0  0  0  0  0  0  0  0  0
    5.7186    5.2224    0.0000 C   0  0  1  0  0  0  0  0  0  0  0  0
    4.9625    6.5179    0.0000 C   0  0  2  0  0  0  0  0  0  0  0  0
    3.4625    6.5108    0.0000 C   0  0  1  0  0  0  0  0  0  0  0  0
    2.7186    5.2083    0.0000 C   0  0  2  0  0  0  0  0  0  0  0  0
    3.4747    3.9128    0.0000 O   0  0  0  0  0  0  0  0  0  0  0  0
    1.2187    5.2012    0.0000 C   0  0  0  0  0  0  0  0  0  0  0  0
    0.4625    6.4967    0.0000 O   0  0  0  0  0  0  0  0  0  0  0  0
    2.7064    7.8063    0.0000 O   0  0  0  0  0  0  0  0  0  0  0  0
    5.7064    7.8204    0.0000 O   0  0  0  0  0  0  0  0  0  0  0  0
    7.2186    5.2295    0.0000 O   0  0  0  0  0  0  0  0  0  0  0  0
   -0.7130    1.2950    0.0000 H   0  0  0  0  0  0  0  0  0  0  0  0
   -0.9886   -3.9025    0.0000 C   0  0  0  0  0  0  0  0  0  0  0  0
   -1.7324   -5.2051    0.0000 C   0  0  0  0  0  0  0  0  0  0  0  0
   -3.2324   -5.2121    0.0000 C   0  0  0  0  0  0  0  0  0  0  0  0
   -3.9885   -3.9166    0.0000 C   0  0  0  0  0  0  0  0  0  0  0  0
   -3.2446   -2.6141    0.0000 C   0  0  0  0  0  0  0  0  0  0  0  0
   -1.7447   -2.6070    0.0000 C   0  0  0  0  0  0  0  0  0  0  0  0
   -1.0008   -1.3045    0.0000 O   0  0  0  0  0  0  0  0  0  0  0  0
    0.4992   -1.2974    0.0000 C   0  0  0  0  0  0  0  0  0  0  0  0
   -5.4885   -3.9237    0.0000 O   0  0  0  0  0  0  0  0  0  0  0  0
   -6.2446   -2.6282    0.0000 C   0  0  0  0  0  0  0  0  0  0  0  0
   -3.9763   -6.5147    0.0000 O   0  0  0  0  0  0  0  0  0  0  0  0
   -3.2202   -7.8102    0.0000 C   0  0  0  0  0  0  0  0  0  0  0  0
  1  2  2  0  0  0  0
  1  6  1  0  0  0  0
  2  3  1  0  0  0  0
  3  4  2  0  0  0  0
  4  5  1  0  0  0  0
  5  6  2  0  0  0  0
  5 11  1  0  0  0  0
  6  7  1  0  0  0  0
  7  8  2  0  0  0  0
  8  9  1  0  0  0  0
  9 10  2  0  0  0  0
  9 11  1  0  0  0  0
  1 12  1  0  0  0  0
 13 14  1  0  0  0  0
 14 15  1  0  0  0  0
 14 16  1  6  0  0  0
 16 17  1  0  0  0  0
 16 18  1  0  0  0  0
 16 19  1  0  0  0  0
  2 15  1  0  0  0  0
  3 13  1  0  0  0  0
 21 20  1  6  0  0  0
 21 22  1  0  0  0  0
 21 26  1  0  0  0  0
 22 23  1  0  0  0  0
 22 31  1  1  0  0  0
 23 24  1  0  0  0  0
 23 30  1  6  0  0  0
 24 25  1  0  0  0  0
 24 29  1  1  0  0  0
 25 26  1  0  0  0  0
 25 27  1  6  0  0  0
 27 28  1  0  0  0  0
  4 20  1  0  0  0  0
  8 32  1  0  0  0  0
 33 34  1  0  0  0  0
 33 38  2  0  0  0  0
 34 35  2  0  0  0  0
 35 36  1  0  0  0  0
 35 43  1  0  0  0  0
 36 37  2  0  0  0  0
 36 41  1  0  0  0  0
 37 38  1  0  0  0  0
 38 39  1  0  0  0  0
 39 40  1  0  0  0  0
 41 42  1  0  0  0  0
 43 44  1  0  0  0  0
  7 40  1  0  0  0  0
M  END
> <score_KierA1>
0.517618

$$$$
suggested molecule #144
 MOE2019            2D

 44 48  0  0  1  0  0  0  0  0999 V2000
    3.4992   -1.2833    0.0000 C   0  0  0  0  0  0  0  0  0  1  0  0
    4.9992   -1.2762    0.0000 C   0  0  0  0  0  0  0  0  0  2  0  0
    5.7430    0.0263    0.0000 C   0  0  0  0  0  0  0  0  0  3  0  0
    4.9869    1.3218    0.0000 C   0  0  0  0  0  0  0  0  0  4  0  0
    3.4870    1.3147    0.0000 C   0  0  0  0  0  0  0  0  0  5  0  0
    2.7431    0.0122    0.0000 C   0  0  0  0  0  0  0  0  0  6  0  0
    1.2431    0.0051    0.0000 C   0  0  0  0  0  0  0  0  0  7  0  0
    0.4870    1.3006    0.0000 C   0  0  0  0  0  0  0  0  0  8  0  0
    1.2309    2.6032    0.0000 C   0  0  0  0  0  0  0  0  0  9  0  0
    0.4748    3.8987    0.0000 O   0  0  0  0  0  0  0  0  0 10  0  0
    2.7309    2.6102    0.0000 O   0  0  0  0  0  0  0  0  0 11  0  0
    2.9041   -2.3253    0.0000 H   0  0  0  0  0  0  0  0  0  0  0  0
    7.2117   -0.2787    0.0000 O   0  0  0  0  0  0  0  0  0  0  0  0
    7.3755   -1.7697    0.0000 C   0  0  1  0  0  0  0  0  0  0  0  0
    6.0081   -2.3862    0.0000 C   0  0  0  0  0  0  0  0  0  0  0  0
    8.6781   -2.5136    0.0000 C   0  0  0  0  0  0  0  0  0  0  0  0
    9.4220   -1.2110    0.0000 C   0  0  0  0  0  0  0  0  0  0  0  0
    7.9342   -3.8161    0.0000 C   0  0  0  0  0  0  0  0  0  0  0  0
    9.9806   -3.2575    0.0000 O   0  0  0  0  0  0  0  0  0  0  0  0
    5.7308    2.6244    0.0000 O   0  0  0  0  0  0  0  0  0  0  0  0
    4.9747    3.9198    0.0000 C   0  0  1  0  0  0  0  0  0  0  0  0
    5.7186    5.2224    0.0000 C   0  0  1  0  0  0  0  0  0  0  0  0
    4.9625    6.5179    0.0000 C   0  0  2  0  0  0  0  0  0  0  0  0
    3.4625    6.5108    0.0000 C   0  0  1  0  0  0  0  0  0  0  0  0
    2.7186    5.2083    0.0000 C   0  0  2  0  0  0  0  0  0  0  0  0
    3.4747    3.9128    0.0000 O   0  0  0  0  0  0  0  0  0  0  0  0
    1.2187    5.2012    0.0000 C   0  0  0  0  0  0  0  0  0  0  0  0
    0.4625    6.4967    0.0000 O   0  0  0  0  0  0  0  0  0  0  0  0
    2.7064    7.8063    0.0000 O   0  0  0  0  0  0  0  0  0  0  0  0
    5.7064    7.8204    0.0000 O   0  0  0  0  0  0  0  0  0  0  0  0
    7.2186    5.2295    0.0000 O   0  0  0  0  0  0  0  0  0  0  0  0
   -0.7130    1.2950    0.0000 H   0  0  0  0  0  0  0  0  0  0  0  0
   -0.9886   -3.9025    0.0000 C   0  0  0  0  0  0  0  0  0  0  0  0
   -1.7324   -5.2051    0.0000 C   0  0  0  0  0  0  0  0  0  0  0  0
   -3.2324   -5.2121    0.0000 C   0  0  0  0  0  0  0  0  0  0  0  0
   -3.9885   -3.9166    0.0000 C   0  0  0  0  0  0  0  0  0  0  0  0
   -3.2446   -2.6141    0.0000 C   0  0  0  0  0  0  0  0  0  0  0  0
   -1.7447   -2.6070    0.0000 C   0  0  0  0  0  0  0  0  0  0  0  0
   -1.0008   -1.3045    0.0000 O   0  0  0  0  0  0  0  0  0  0  0  0
    0.4992   -1.2974    0.0000 C   0  0  0  0  0  0  0  0  0  0  0  0
   -5.4885   -3.9237    0.0000 O   0  0  0  0  0  0  0  0  0  0  0  0
   -6.2446   -2.6282    0.0000 C   0  0  0  0  0  0  0  0  0  0  0  0
   -3.9763   -6.5147    0.0000 O   0  0  0  0  0  0  0  0  0  0  0  0
   -3.2202   -7.8102    0.0000 C   0  0  0  0  0  0  0  0  0  0  0  0
  1  2  2  0  0  0  0
  1  6  1  0  0  0  0
  2  3  1  0  0  0  0
  3  4  2  0  0  0  0
  4  5  1  0  0  0  0
  5  6  2  0  0  0  0
  5 11  1  0  0  0  0
  6  7  1  0  0  0  0
  7  8  2  0  0  0  0
  8  9  1  0  0  0  0
  9 10  2  0  0  0  0
  9 11  1  0  0  0  0
  1 12  1  0  0  0  0
 13 14  1  0  0  0  0
 14 15  1  0  0  0  0
 14 16  1  6  0  0  0
 16 17  1  0  0  0  0
 16 18  1  0  0  0  0
 16 19  1  0  0  0  0
  2 15  1  0  0  0  0
  3 13  1  0  0  0  0
 21 20  1  6  0  0  0
 21 22  1  0  0  0  0
 21 26  1  0  0  0  0
 22 23  1  0  0  0  0
 22 31  1  1  0  0  0
 23 24  1  0  0  0  0
 23 30  1  6  0  0  0
 24 25  1  0  0  0  0
 24 29  1  1  0  0  0
 25 26  1  0  0  0  0
 25 27  1  6  0  0  0
 27 28  1  0  0  0  0
  4 20  1  0  0  0  0
  8 32  1  0  0  0  0
 33 34  1  0  0  0  0
 33 38  2  0  0  0  0
 34 35  2  0  0  0  0
 35 36  1  0  0  0  0
 35 43  1  0  0  0  0
 36 37  2  0  0  0  0
 36 41  1  0  0  0  0
 37 38  1  0  0  0  0
 38 39  1  0  0  0  0
 39 40  1  0  0  0  0
 41 42  1  0  0  0  0
 43 44  1  0  0  0  0
  7 40  1  0  0  0  0
M  END
> <score_KierA2>
0.516739

$$$$
suggested molecule #145
 MOE2019            2D

 44 48  0  0  1  0  0  0  0  0999 V2000
    3.4992   -1.2833    0.0000 C   0  0  0  0  0  0  0  0  0  1  0  0
    4.9992   -1.2762    0.0000 C   0  0  0  0  0  0  0  0  0  2  0  0
    5.7430    0.0263    0.0000 C   0  0  0  0  0  0  0  0  0  3  0  0
    4.9869    1.3218    0.0000 C   0  0  0  0  0  0  0  0  0  4  0  0
    3.4870    1.3147    0.0000 C   0  0  0  0  0  0  0  0  0  5  0  0
    2.7431    0.0122    0.0000 C   0  0  0  0  0  0  0  0  0  6  0  0
    1.2431    0.0051    0.0000 C   0  0  0  0  0  0  0  0  0  7  0  0
    0.4870    1.3006    0.0000 C   0  0  0  0  0  0  0  0  0  8  0  0
    1.2309    2.6032    0.0000 C   0  0  0  0  0  0  0  0  0  9  0  0
    0.4748    3.8987    0.0000 O   0  0  0  0  0  0  0  0  0 10  0  0
    2.7309    2.6102    0.0000 O   0  0  0  0  0  0  0  0  0 11  0  0
    2.9041   -2.3253    0.0000 H   0  0  0  0  0  0  0  0  0  0  0  0
    7.2117   -0.2787    0.0000 O   0  0  0  0  0  0  0  0  0  0  0  0
    7.3755   -1.7697    0.0000 C   0  0  1  0  0  0  0  0  0  0  0  0
    6.0081   -2.3862    0.0000 C   0  0  0  0  0  0  0  0  0  0  0  0
    8.6781   -2.5136    0.0000 C   0  0  0  0  0  0  0  0  0  0  0  0
    9.4220   -1.2110    0.0000 C   0  0  0  0  0  0  0  0  0  0  0  0
    7.9342   -3.8161    0.0000 C   0  0  0  0  0  0  0  0  0  0  0  0
    9.9806   -3.2575    0.0000 O   0  0  0  0  0  0  0  0  0  0  0  0
    5.7308    2.6244    0.0000 O   0  0  0  0  0  0  0  0  0  0  0  0
    4.9747    3.9198    0.0000 C   0  0  1  0  0  0  0  0  0  0  0  0
    5.7186    5.2224    0.0000 C   0  0  1  0  0  0  0  0  0  0  0  0
    4.9625    6.5179    0.0000 C   0  0  2  0  0  0  0  0  0  0  0  0
    3.4625    6.5108    0.0000 C   0  0  1  0  0  0  0  0  0  0  0  0
    2.7186    5.2083    0.0000 C   0  0  2  0  0  0  0  0  0  0  0  0
    3.4747    3.9128    0.0000 O   0  0  0  0  0  0  0  0  0  0  0  0
    1.2187    5.2012    0.0000 C   0  0  0  0  0  0  0  0  0  0  0  0
    0.4625    6.4967    0.0000 O   0  0  0  0  0  0  0  0  0  0  0  0
    2.7064    7.8063    0.0000 O   0  0  0  0  0  0  0  0  0  0  0  0
    5.7064    7.8204    0.0000 O   0  0  0  0  0  0  0  0  0  0  0  0
    7.2186    5.2295    0.0000 O   0  0  0  0  0  0  0  0  0  0  0  0
   -0.7130    1.2950    0.0000 H   0  0  0  0  0  0  0  0  0  0  0  0
   -0.9886   -3.9025    0.0000 C   0  0  0  0  0  0  0  0  0  0  0  0
   -1.7324   -5.2051    0.0000 C   0  0  0  0  0  0  0  0  0  0  0  0
   -3.2324   -5.2121    0.0000 C   0  0  0  0  0  0  0  0  0  0  0  0
   -3.9885   -3.9166    0.0000 C   0  0  0  0  0  0  0  0  0  0  0  0
   -3.2446   -2.6141    0.0000 C   0  0  0  0  0  0  0  0  0  0  0  0
   -1.7447   -2.6070    0.0000 C   0  0  0  0  0  0  0  0  0  0  0  0
   -1.0008   -1.3045    0.0000 O   0  0  0  0  0  0  0  0  0  0  0  0
    0.4992   -1.2974    0.0000 C   0  0  0  0  0  0  0  0  0  0  0  0
   -5.4885   -3.9237    0.0000 O   0  0  0  0  0  0  0  0  0  0  0  0
   -6.2446   -2.6282    0.0000 C   0  0  0  0  0  0  0  0  0  0  0  0
   -3.9763   -6.5147    0.0000 O   0  0  0  0  0  0  0  0  0  0  0  0
   -3.2202   -7.8102    0.0000 C   0  0  0  0  0  0  0  0  0  0  0  0
  1  2  2  0  0  0  0
  1  6  1  0  0  0  0
  2  3  1  0  0  0  0
  3  4  2  0  0  0  0
  4  5  1  0  0  0  0
  5  6  2  0  0  0  0
  5 11  1  0  0  0  0
  6  7  1  0  0  0  0
  7  8  2  0  0  0  0
  8  9  1  0  0  0  0
  9 10  2  0  0  0  0
  9 11  1  0  0  0  0
  1 12  1  0  0  0  0
 13 14  1  0  0  0  0
 14 15  1  0  0  0  0
 14 16  1  6  0  0  0
 16 17  1  0  0  0  0
 16 18  1  0  0  0  0
 16 19  1  0  0  0  0
  2 15  1  0  0  0  0
  3 13  1  0  0  0  0
 21 20  1  6  0  0  0
 21 22  1  0  0  0  0
 21 26  1  0  0  0  0
 22 23  1  0  0  0  0
 22 31  1  1  0  0  0
 23 24  1  0  0  0  0
 23 30  1  6  0  0  0
 24 25  1  0  0  0  0
 24 29  1  1  0  0  0
 25 26  1  0  0  0  0
 25 27  1  6  0  0  0
 27 28  1  0  0  0  0
  4 20  1  0  0  0  0
  8 32  1  0  0  0  0
 33 34  1  0  0  0  0
 33 38  2  0  0  0  0
 34 35  2  0  0  0  0
 35 36  1  0  0  0  0
 35 43  1  0  0  0  0
 36 37  2  0  0  0  0
 36 41  1  0  0  0  0
 37 38  1  0  0  0  0
 38 39  1  0  0  0  0
 39 40  1  0  0  0  0
 41 42  1  0  0  0  0
 43 44  1  0  0  0  0
  7 40  1  0  0  0  0
M  END
> <score_KierA3>
0.512193

$$$$
suggested molecule #146
 MOE2019            2D

 44 48  0  0  1  0  0  0  0  0999 V2000
    3.4992   -1.2833    0.0000 C   0  0  0  0  0  0  0  0  0  1  0  0
    4.9992   -1.2762    0.0000 C   0  0  0  0  0  0  0  0  0  2  0  0
    5.7430    0.0263    0.0000 C   0  0  0  0  0  0  0  0  0  3  0  0
    4.9869    1.3218    0.0000 C   0  0  0  0  0  0  0  0  0  4  0  0
    3.4870    1.3147    0.0000 C   0  0  0  0  0  0  0  0  0  5  0  0
    2.7431    0.0122    0.0000 C   0  0  0  0  0  0  0  0  0  6  0  0
    1.2431    0.0051    0.0000 C   0  0  0  0  0  0  0  0  0  7  0  0
    0.4870    1.3006    0.0000 C   0  0  0  0  0  0  0  0  0  8  0  0
    1.2309    2.6032    0.0000 C   0  0  0  0  0  0  0  0  0  9  0  0
    0.4748    3.8987    0.0000 O   0  0  0  0  0  0  0  0  0 10  0  0
    2.7309    2.6102    0.0000 O   0  0  0  0  0  0  0  0  0 11  0  0
    2.9041   -2.3253    0.0000 H   0  0  0  0  0  0  0  0  0  0  0  0
    7.2117   -0.2787    0.0000 O   0  0  0  0  0  0  0  0  0  0  0  0
    7.3755   -1.7697    0.0000 C   0  0  1  0  0  0  0  0  0  0  0  0
    6.0081   -2.3862    0.0000 C   0  0  0  0  0  0  0  0  0  0  0  0
    8.6781   -2.5136    0.0000 C   0  0  0  0  0  0  0  0  0  0  0  0
    9.4220   -1.2110    0.0000 C   0  0  0  0  0  0  0  0  0  0  0  0
    7.9342   -3.8161    0.0000 C   0  0  0  0  0  0  0  0  0  0  0  0
    9.9806   -3.2575    0.0000 O   0  0  0  0  0  0  0  0  0  0  0  0
    5.7308    2.6244    0.0000 O   0  0  0  0  0  0  0  0  0  0  0  0
    4.9747    3.9198    0.0000 C   0  0  1  0  0  0  0  0  0  0  0  0
    5.7186    5.2224    0.0000 C   0  0  1  0  0  0  0  0  0  0  0  0
    4.9625    6.5179    0.0000 C   0  0  2  0  0  0  0  0  0  0  0  0
    3.4625    6.5108    0.0000 C   0  0  1  0  0  0  0  0  0  0  0  0
    2.7186    5.2083    0.0000 C   0  0  2  0  0  0  0  0  0  0  0  0
    3.4747    3.9128    0.0000 O   0  0  0  0  0  0  0  0  0  0  0  0
    1.2187    5.2012    0.0000 C   0  0  0  0  0  0  0  0  0  0  0  0
    0.4625    6.4967    0.0000 O   0  0  0  0  0  0  0  0  0  0  0  0
    2.7064    7.8063    0.0000 O   0  0  0  0  0  0  0  0  0  0  0  0
    5.7064    7.8204    0.0000 O   0  0  0  0  0  0  0  0  0  0  0  0
    7.2186    5.2295    0.0000 O   0  0  0  0  0  0  0  0  0  0  0  0
   -0.7130    1.2950    0.0000 H   0  0  0  0  0  0  0  0  0  0  0  0
   -0.9886   -3.9025    0.0000 C   0  0  0  0  0  0  0  0  0  0  0  0
   -1.7324   -5.2051    0.0000 C   0  0  0  0  0  0  0  0  0  0  0  0
   -3.2324   -5.2121    0.0000 C   0  0  0  0  0  0  0  0  0  0  0  0
   -3.9885   -3.9166    0.0000 C   0  0  0  0  0  0  0  0  0  0  0  0
   -3.2446   -2.6141    0.0000 C   0  0  0  0  0  0  0  0  0  0  0  0
   -1.7447   -2.6070    0.0000 C   0  0  0  0  0  0  0  0  0  0  0  0
   -1.0008   -1.3045    0.0000 O   0  0  0  0  0  0  0  0  0  0  0  0
    0.4992   -1.2974    0.0000 C   0  0  0  0  0  0  0  0  0  0  0  0
   -5.4885   -3.9237    0.0000 O   0  0  0  0  0  0  0  0  0  0  0  0
   -6.2446   -2.6282    0.0000 C   0  0  0  0  0  0  0  0  0  0  0  0
   -3.9763   -6.5147    0.0000 O   0  0  0  0  0  0  0  0  0  0  0  0
   -3.2202   -7.8102    0.0000 C   0  0  0  0  0  0  0  0  0  0  0  0
  1  2  2  0  0  0  0
  1  6  1  0  0  0  0
  2  3  1  0  0  0  0
  3  4  2  0  0  0  0
  4  5  1  0  0  0  0
  5  6  2  0  0  0  0
  5 11  1  0  0  0  0
  6  7  1  0  0  0  0
  7  8  2  0  0  0  0
  8  9  1  0  0  0  0
  9 10  2  0  0  0  0
  9 11  1  0  0  0  0
  1 12  1  0  0  0  0
 13 14  1  0  0  0  0
 14 15  1  0  0  0  0
 14 16  1  6  0  0  0
 16 17  1  0  0  0  0
 16 18  1  0  0  0  0
 16 19  1  0  0  0  0
  2 15  1  0  0  0  0
  3 13  1  0  0  0  0
 21 20  1  6  0  0  0
 21 22  1  0  0  0  0
 21 26  1  0  0  0  0
 22 23  1  0  0  0  0
 22 31  1  1  0  0  0
 23 24  1  0  0  0  0
 23 30  1  6  0  0  0
 24 25  1  0  0  0  0
 24 29  1  1  0  0  0
 25 26  1  0  0  0  0
 25 27  1  6  0  0  0
 27 28  1  0  0  0  0
  4 20  1  0  0  0  0
  8 32  1  0  0  0  0
 33 34  1  0  0  0  0
 33 38  2  0  0  0  0
 34 35  2  0  0  0  0
 35 36  1  0  0  0  0
 35 43  1  0  0  0  0
 36 37  2  0  0  0  0
 36 41  1  0  0  0  0
 37 38  1  0  0  0  0
 38 39  1  0  0  0  0
 39 40  1  0  0  0  0
 41 42  1  0  0  0  0
 43 44  1  0  0  0  0
  7 40  1  0  0  0  0
M  END
> <score_KierFlex>
0.516382

$$$$
suggested molecule #147
 MOE2019            2D

 44 48  0  0  1  0  0  0  0  0999 V2000
    3.4992   -1.2833    0.0000 C   0  0  0  0  0  0  0  0  0  1  0  0
    4.9992   -1.2762    0.0000 C   0  0  0  0  0  0  0  0  0  2  0  0
    5.7430    0.0263    0.0000 C   0  0  0  0  0  0  0  0  0  3  0  0
    4.9869    1.3218    0.0000 C   0  0  0  0  0  0  0  0  0  4  0  0
    3.4870    1.3147    0.0000 C   0  0  0  0  0  0  0  0  0  5  0  0
    2.7431    0.0122    0.0000 C   0  0  0  0  0  0  0  0  0  6  0  0
    1.2431    0.0051    0.0000 C   0  0  0  0  0  0  0  0  0  7  0  0
    0.4870    1.3006    0.0000 C   0  0  0  0  0  0  0  0  0  8  0  0
    1.2309    2.6032    0.0000 C   0  0  0  0  0  0  0  0  0  9  0  0
    0.4748    3.8987    0.0000 O   0  0  0  0  0  0  0  0  0 10  0  0
    2.7309    2.6102    0.0000 O   0  0  0  0  0  0  0  0  0 11  0  0
    2.9041   -2.3253    0.0000 H   0  0  0  0  0  0  0  0  0  0  0  0
    7.2117   -0.2787    0.0000 O   0  0  0  0  0  0  0  0  0  0  0  0
    7.3755   -1.7697    0.0000 C   0  0  1  0  0  0  0  0  0  0  0  0
    6.0081   -2.3862    0.0000 C   0  0  0  0  0  0  0  0  0  0  0  0
    8.6781   -2.5136    0.0000 C   0  0  0  0  0  0  0  0  0  0  0  0
    9.4220   -1.2110    0.0000 C   0  0  0  0  0  0  0  0  0  0  0  0
    7.9342   -3.8161    0.0000 C   0  0  0  0  0  0  0  0  0  0  0  0
    9.9806   -3.2575    0.0000 O   0  0  0  0  0  0  0  0  0  0  0  0
    5.7308    2.6244    0.0000 O   0  0  0  0  0  0  0  0  0  0  0  0
    4.9747    3.9198    0.0000 C   0  0  1  0  0  0  0  0  0  0  0  0
    5.7186    5.2224    0.0000 C   0  0  1  0  0  0  0  0  0  0  0  0
    4.9625    6.5179    0.0000 C   0  0  2  0  0  0  0  0  0  0  0  0
    3.4625    6.5108    0.0000 C   0  0  1  0  0  0  0  0  0  0  0  0
    2.7186    5.2083    0.0000 C   0  0  2  0  0  0  0  0  0  0  0  0
    3.4747    3.9128    0.0000 O   0  0  0  0  0  0  0  0  0  0  0  0
    1.2187    5.2012    0.0000 C   0  0  0  0  0  0  0  0  0  0  0  0
    0.4625    6.4967    0.0000 O   0  0  0  0  0  0  0  0  0  0  0  0
    2.7064    7.8063    0.0000 O   0  0  0  0  0  0  0  0  0  0  0  0
    5.7064    7.8204    0.0000 O   0  0  0  0  0  0  0  0  0  0  0  0
    7.2186    5.2295    0.0000 O   0  0  0  0  0  0  0  0  0  0  0  0
   -0.7130    1.2950    0.0000 H   0  0  0  0  0  0  0  0  0  0  0  0
   -0.9886   -3.9025    0.0000 C   0  0  0  0  0  0  0  0  0  0  0  0
   -1.7324   -5.2051    0.0000 C   0  0  0  0  0  0  0  0  0  0  0  0
   -3.2324   -5.2121    0.0000 C   0  0  0  0  0  0  0  0  0  0  0  0
   -3.9885   -3.9166    0.0000 C   0  0  0  0  0  0  0  0  0  0  0  0
   -3.2446   -2.6141    0.0000 C   0  0  0  0  0  0  0  0  0  0  0  0
   -1.7447   -2.6070    0.0000 C   0  0  0  0  0  0  0  0  0  0  0  0
   -1.0008   -1.3045    0.0000 O   0  0  0  0  0  0  0  0  0  0  0  0
    0.4992   -1.2974    0.0000 C   0  0  0  0  0  0  0  0  0  0  0  0
   -5.4885   -3.9237    0.0000 O   0  0  0  0  0  0  0  0  0  0  0  0
   -6.2446   -2.6282    0.0000 C   0  0  0  0  0  0  0  0  0  0  0  0
   -3.9763   -6.5147    0.0000 O   0  0  0  0  0  0  0  0  0  0  0  0
   -3.2202   -7.8102    0.0000 C   0  0  0  0  0  0  0  0  0  0  0  0
  1  2  2  0  0  0  0
  1  6  1  0  0  0  0
  2  3  1  0  0  0  0
  3  4  2  0  0  0  0
  4  5  1  0  0  0  0
  5  6  2  0  0  0  0
  5 11  1  0  0  0  0
  6  7  1  0  0  0  0
  7  8  2  0  0  0  0
  8  9  1  0  0  0  0
  9 10  2  0  0  0  0
  9 11  1  0  0  0  0
  1 12  1  0  0  0  0
 13 14  1  0  0  0  0
 14 15  1  0  0  0  0
 14 16  1  6  0  0  0
 16 17  1  0  0  0  0
 16 18  1  0  0  0  0
 16 19  1  0  0  0  0
  2 15  1  0  0  0  0
  3 13  1  0  0  0  0
 21 20  1  6  0  0  0
 21 22  1  0  0  0  0
 21 26  1  0  0  0  0
 22 23  1  0  0  0  0
 22 31  1  1  0  0  0
 23 24  1  0  0  0  0
 23 30  1  6  0  0  0
 24 25  1  0  0  0  0
 24 29  1  1  0  0  0
 25 26  1  0  0  0  0
 25 27  1  6  0  0  0
 27 28  1  0  0  0  0
  4 20  1  0  0  0  0
  8 32  1  0  0  0  0
 33 34  1  0  0  0  0
 33 38  2  0  0  0  0
 34 35  2  0  0  0  0
 35 36  1  0  0  0  0
 35 43  1  0  0  0  0
 36 37  2  0  0  0  0
 36 41  1  0  0  0  0
 37 38  1  0  0  0  0
 38 39  1  0  0  0  0
 39 40  1  0  0  0  0
 41 42  1  0  0  0  0
 43 44  1  0  0  0  0
  7 40  1  0  0  0  0
M  END
> <score_Kier2>
0.516454

$$$$
suggested molecule #148
 MOE2019            2D

 44 48  0  0  1  0  0  0  0  0999 V2000
    3.4992   -1.2833    0.0000 C   0  0  0  0  0  0  0  0  0  1  0  0
    4.9992   -1.2762    0.0000 C   0  0  0  0  0  0  0  0  0  2  0  0
    5.7430    0.0263    0.0000 C   0  0  0  0  0  0  0  0  0  3  0  0
    4.9869    1.3218    0.0000 C   0  0  0  0  0  0  0  0  0  4  0  0
    3.4870    1.3147    0.0000 C   0  0  0  0  0  0  0  0  0  5  0  0
    2.7431    0.0122    0.0000 C   0  0  0  0  0  0  0  0  0  6  0  0
    1.2431    0.0051    0.0000 C   0  0  0  0  0  0  0  0  0  7  0  0
    0.4870    1.3006    0.0000 C   0  0  0  0  0  0  0  0  0  8  0  0
    1.2309    2.6032    0.0000 C   0  0  0  0  0  0  0  0  0  9  0  0
    0.4748    3.8987    0.0000 O   0  0  0  0  0  0  0  0  0 10  0  0
    2.7309    2.6102    0.0000 O   0  0  0  0  0  0  0  0  0 11  0  0
    2.9041   -2.3253    0.0000 H   0  0  0  0  0  0  0  0  0  0  0  0
    7.2117   -0.2787    0.0000 O   0  0  0  0  0  0  0  0  0  0  0  0
    7.3755   -1.7697    0.0000 C   0  0  1  0  0  0  0  0  0  0  0  0
    6.0081   -2.3862    0.0000 C   0  0  0  0  0  0  0  0  0  0  0  0
    8.6781   -2.5136    0.0000 C   0  0  0  0  0  0  0  0  0  0  0  0
    9.4220   -1.2110    0.0000 C   0  0  0  0  0  0  0  0  0  0  0  0
    7.9342   -3.8161    0.0000 C   0  0  0  0  0  0  0  0  0  0  0  0
    9.9806   -3.2575    0.0000 O   0  0  0  0  0  0  0  0  0  0  0  0
    5.7308    2.6244    0.0000 O   0  0  0  0  0  0  0  0  0  0  0  0
    4.9747    3.9198    0.0000 C   0  0  1  0  0  0  0  0  0  0  0  0
    5.7186    5.2224    0.0000 C   0  0  1  0  0  0  0  0  0  0  0  0
    4.9625    6.5179    0.0000 C   0  0  2  0  0  0  0  0  0  0  0  0
    3.4625    6.5108    0.0000 C   0  0  1  0  0  0  0  0  0  0  0  0
    2.7186    5.2083    0.0000 C   0  0  2  0  0  0  0  0  0  0  0  0
    3.4747    3.9128    0.0000 O   0  0  0  0  0  0  0  0  0  0  0  0
    1.2187    5.2012    0.0000 C   0  0  0  0  0  0  0  0  0  0  0  0
    0.4625    6.4967    0.0000 O   0  0  0  0  0  0  0  0  0  0  0  0
    2.7064    7.8063    0.0000 O   0  0  0  0  0  0  0  0  0  0  0  0
    5.7064    7.8204    0.0000 O   0  0  0  0  0  0  0  0  0  0  0  0
    7.2186    5.2295    0.0000 O   0  0  0  0  0  0  0  0  0  0  0  0
   -0.7130    1.2950    0.0000 H   0  0  0  0  0  0  0  0  0  0  0  0
   -0.9886   -3.9025    0.0000 C   0  0  0  0  0  0  0  0  0  0  0  0
   -1.7324   -5.2051    0.0000 C   0  0  0  0  0  0  0  0  0  0  0  0
   -3.2324   -5.2121    0.0000 C   0  0  0  0  0  0  0  0  0  0  0  0
   -3.9885   -3.9166    0.0000 C   0  0  0  0  0  0  0  0  0  0  0  0
   -3.2446   -2.6141    0.0000 C   0  0  0  0  0  0  0  0  0  0  0  0
   -1.7447   -2.6070    0.0000 C   0  0  0  0  0  0  0  0  0  0  0  0
   -1.0008   -1.3045    0.0000 O   0  0  0  0  0  0  0  0  0  0  0  0
    0.4992   -1.2974    0.0000 C   0  0  0  0  0  0  0  0  0  0  0  0
   -5.4885   -3.9237    0.0000 O   0  0  0  0  0  0  0  0  0  0  0  0
   -6.2446   -2.6282    0.0000 C   0  0  0  0  0  0  0  0  0  0  0  0
   -3.9763   -6.5147    0.0000 O   0  0  0  0  0  0  0  0  0  0  0  0
   -3.2202   -7.8102    0.0000 C   0  0  0  0  0  0  0  0  0  0  0  0
  1  2  2  0  0  0  0
  1  6  1  0  0  0  0
  2  3  1  0  0  0  0
  3  4  2  0  0  0  0
  4  5  1  0  0  0  0
  5  6  2  0  0  0  0
  5 11  1  0  0  0  0
  6  7  1  0  0  0  0
  7  8  2  0  0  0  0
  8  9  1  0  0  0  0
  9 10  2  0  0  0  0
  9 11  1  0  0  0  0
  1 12  1  0  0  0  0
 13 14  1  0  0  0  0
 14 15  1  0  0  0  0
 14 16  1  6  0  0  0
 16 17  1  0  0  0  0
 16 18  1  0  0  0  0
 16 19  1  0  0  0  0
  2 15  1  0  0  0  0
  3 13  1  0  0  0  0
 21 20  1  6  0  0  0
 21 22  1  0  0  0  0
 21 26  1  0  0  0  0
 22 23  1  0  0  0  0
 22 31  1  1  0  0  0
 23 24  1  0  0  0  0
 23 30  1  6  0  0  0
 24 25  1  0  0  0  0
 24 29  1  1  0  0  0
 25 26  1  0  0  0  0
 25 27  1  6  0  0  0
 27 28  1  0  0  0  0
  4 20  1  0  0  0  0
  8 32  1  0  0  0  0
 33 34  1  0  0  0  0
 33 38  2  0  0  0  0
 34 35  2  0  0  0  0
 35 36  1  0  0  0  0
 35 43  1  0  0  0  0
 36 37  2  0  0  0  0
 36 41  1  0  0  0  0
 37 38  1  0  0  0  0
 38 39  1  0  0  0  0
 39 40  1  0  0  0  0
 41 42  1  0  0  0  0
 43 44  1  0  0  0  0
  7 40  1  0  0  0  0
M  END
> <score_Kier3>
0.511579

$$$$
suggested molecule #149
 MOE2019            2D

 44 48  0  0  1  0  0  0  0  0999 V2000
    3.4992   -1.2833    0.0000 C   0  0  0  0  0  0  0  0  0  1  0  0
    4.9992   -1.2762    0.0000 C   0  0  0  0  0  0  0  0  0  2  0  0
    5.7430    0.0263    0.0000 C   0  0  0  0  0  0  0  0  0  3  0  0
    4.9869    1.3218    0.0000 C   0  0  0  0  0  0  0  0  0  4  0  0
    3.4870    1.3147    0.0000 C   0  0  0  0  0  0  0  0  0  5  0  0
    2.7431    0.0122    0.0000 C   0  0  0  0  0  0  0  0  0  6  0  0
    1.2431    0.0051    0.0000 C   0  0  0  0  0  0  0  0  0  7  0  0
    0.4870    1.3006    0.0000 C   0  0  0  0  0  0  0  0  0  8  0  0
    1.2309    2.6032    0.0000 C   0  0  0  0  0  0  0  0  0  9  0  0
    0.4748    3.8987    0.0000 O   0  0  0  0  0  0  0  0  0 10  0  0
    2.7309    2.6102    0.0000 O   0  0  0  0  0  0  0  0  0 11  0  0
    2.9041   -2.3253    0.0000 H   0  0  0  0  0  0  0  0  0  0  0  0
    7.2117   -0.2787    0.0000 O   0  0  0  0  0  0  0  0  0  0  0  0
    7.3755   -1.7697    0.0000 C   0  0  1  0  0  0  0  0  0  0  0  0
    6.0081   -2.3862    0.0000 C   0  0  0  0  0  0  0  0  0  0  0  0
    8.6781   -2.5136    0.0000 C   0  0  0  0  0  0  0  0  0  0  0  0
    9.4220   -1.2110    0.0000 C   0  0  0  0  0  0  0  0  0  0  0  0
    7.9342   -3.8161    0.0000 C   0  0  0  0  0  0  0  0  0  0  0  0
    9.9806   -3.2575    0.0000 O   0  0  0  0  0  0  0  0  0  0  0  0
    5.7308    2.6244    0.0000 O   0  0  0  0  0  0  0  0  0  0  0  0
    4.9747    3.9198    0.0000 C   0  0  1  0  0  0  0  0  0  0  0  0
    5.7186    5.2224    0.0000 C   0  0  1  0  0  0  0  0  0  0  0  0
    4.9625    6.5179    0.0000 C   0  0  2  0  0  0  0  0  0  0  0  0
    3.4625    6.5108    0.0000 C   0  0  1  0  0  0  0  0  0  0  0  0
    2.7186    5.2083    0.0000 C   0  0  2  0  0  0  0  0  0  0  0  0
    3.4747    3.9128    0.0000 O   0  0  0  0  0  0  0  0  0  0  0  0
    1.2187    5.2012    0.0000 C   0  0  0  0  0  0  0  0  0  0  0  0
    0.4625    6.4967    0.0000 O   0  0  0  0  0  0  0  0  0  0  0  0
    2.7064    7.8063    0.0000 O   0  0  0  0  0  0  0  0  0  0  0  0
    5.7064    7.8204    0.0000 O   0  0  0  0  0  0  0  0  0  0  0  0
    7.2186    5.2295    0.0000 O   0  0  0  0  0  0  0  0  0  0  0  0
   -0.7130    1.2950    0.0000 H   0  0  0  0  0  0  0  0  0  0  0  0
   -0.9886   -3.9025    0.0000 C   0  0  0  0  0  0  0  0  0  0  0  0
   -1.7324   -5.2051    0.0000 C   0  0  0  0  0  0  0  0  0  0  0  0
   -3.2324   -5.2121    0.0000 C   0  0  0  0  0  0  0  0  0  0  0  0
   -3.9885   -3.9166    0.0000 C   0  0  0  0  0  0  0  0  0  0  0  0
   -3.2446   -2.6141    0.0000 C   0  0  0  0  0  0  0  0  0  0  0  0
   -1.7447   -2.6070    0.0000 C   0  0  0  0  0  0  0  0  0  0  0  0
   -1.0008   -1.3045    0.0000 O   0  0  0  0  0  0  0  0  0  0  0  0
    0.4992   -1.2974    0.0000 C   0  0  0  0  0  0  0  0  0  0  0  0
   -5.4885   -3.9237    0.0000 O   0  0  0  0  0  0  0  0  0  0  0  0
   -6.2446   -2.6282    0.0000 C   0  0  0  0  0  0  0  0  0  0  0  0
   -3.9763   -6.5147    0.0000 O   0  0  0  0  0  0  0  0  0  0  0  0
   -3.2202   -7.8102    0.0000 C   0  0  0  0  0  0  0  0  0  0  0  0
  1  2  2  0  0  0  0
  1  6  1  0  0  0  0
  2  3  1  0  0  0  0
  3  4  2  0  0  0  0
  4  5  1  0  0  0  0
  5  6  2  0  0  0  0
  5 11  1  0  0  0  0
  6  7  1  0  0  0  0
  7  8  2  0  0  0  0
  8  9  1  0  0  0  0
  9 10  2  0  0  0  0
  9 11  1  0  0  0  0
  1 12  1  0  0  0  0
 13 14  1  0  0  0  0
 14 15  1  0  0  0  0
 14 16  1  6  0  0  0
 16 17  1  0  0  0  0
 16 18  1  0  0  0  0
 16 19  1  0  0  0  0
  2 15  1  0  0  0  0
  3 13  1  0  0  0  0
 21 20  1  6  0  0  0
 21 22  1  0  0  0  0
 21 26  1  0  0  0  0
 22 23  1  0  0  0  0
 22 31  1  1  0  0  0
 23 24  1  0  0  0  0
 23 30  1  6  0  0  0
 24 25  1  0  0  0  0
 24 29  1  1  0  0  0
 25 26  1  0  0  0  0
 25 27  1  6  0  0  0
 27 28  1  0  0  0  0
  4 20  1  0  0  0  0
  8 32  1  0  0  0  0
 33 34  1  0  0  0  0
 33 38  2  0  0  0  0
 34 35  2  0  0  0  0
 35 36  1  0  0  0  0
 35 43  1  0  0  0  0
 36 37  2  0  0  0  0
 36 41  1  0  0  0  0
 37 38  1  0  0  0  0
 38 39  1  0  0  0  0
 39 40  1  0  0  0  0
 41 42  1  0  0  0  0
 43 44  1  0  0  0  0
  7 40  1  0  0  0  0
M  END
> <score_KierA1>
0.517614

$$$$
suggested molecule #150
 MOE2019            2D

 44 48  0  0  1  0  0  0  0  0999 V2000
    3.4992   -1.2833    0.0000 C   0  0  0  0  0  0  0  0  0  1  0  0
    4.9992   -1.2762    0.0000 C   0  0  0  0  0  0  0  0  0  2  0  0
    5.7430    0.0263    0.0000 C   0  0  0  0  0  0  0  0  0  3  0  0
    4.9869    1.3218    0.0000 C   0  0  0  0  0  0  0  0  0  4  0  0
    3.4870    1.3147    0.0000 C   0  0  0  0  0  0  0  0  0  5  0  0
    2.7431    0.0122    0.0000 C   0  0  0  0  0  0  0  0  0  6  0  0
    1.2431    0.0051    0.0000 C   0  0  0  0  0  0  0  0  0  7  0  0
    0.4870    1.3006    0.0000 C   0  0  0  0  0  0  0  0  0  8  0  0
    1.2309    2.6032    0.0000 C   0  0  0  0  0  0  0  0  0  9  0  0
    0.4748    3.8987    0.0000 O   0  0  0  0  0  0  0  0  0 10  0  0
    2.7309    2.6102    0.0000 O   0  0  0  0  0  0  0  0  0 11  0  0
    2.9041   -2.3253    0.0000 H   0  0  0  0  0  0  0  0  0  0  0  0
    7.2117   -0.2787    0.0000 O   0  0  0  0  0  0  0  0  0  0  0  0
    7.3755   -1.7697    0.0000 C   0  0  1  0  0  0  0  0  0  0  0  0
    6.0081   -2.3862    0.0000 C   0  0  0  0  0  0  0  0  0  0  0  0
    8.6781   -2.5136    0.0000 C   0  0  0  0  0  0  0  0  0  0  0  0
    9.4220   -1.2110    0.0000 C   0  0  0  0  0  0  0  0  0  0  0  0
    7.9342   -3.8161    0.0000 C   0  0  0  0  0  0  0  0  0  0  0  0
    9.9806   -3.2575    0.0000 O   0  0  0  0  0  0  0  0  0  0  0  0
    5.7308    2.6244    0.0000 O   0  0  0  0  0  0  0  0  0  0  0  0
    4.9747    3.9198    0.0000 C   0  0  1  0  0  0  0  0  0  0  0  0
    5.7186    5.2224    0.0000 C   0  0  1  0  0  0  0  0  0  0  0  0
    4.9625    6.5179    0.0000 C   0  0  2  0  0  0  0  0  0  0  0  0
    3.4625    6.5108    0.0000 C   0  0  1  0  0  0  0  0  0  0  0  0
    2.7186    5.2083    0.0000 C   0  0  2  0  0  0  0  0  0  0  0  0
    3.4747    3.9128    0.0000 O   0  0  0  0  0  0  0  0  0  0  0  0
    1.2187    5.2012    0.0000 C   0  0  0  0  0  0  0  0  0  0  0  0
    0.4625    6.4967    0.0000 O   0  0  0  0  0  0  0  0  0  0  0  0
    2.7064    7.8063    0.0000 O   0  0  0  0  0  0  0  0  0  0  0  0
    5.7064    7.8204    0.0000 O   0  0  0  0  0  0  0  0  0  0  0  0
    7.2186    5.2295    0.0000 O   0  0  0  0  0  0  0  0  0  0  0  0
   -0.7130    1.2950    0.0000 H   0  0  0  0  0  0  0  0  0  0  0  0
   -0.9886   -3.9025    0.0000 C   0  0  0  0  0  0  0  0  0  0  0  0
   -1.7324   -5.2051    0.0000 C   0  0  0  0  0  0  0  0  0  0  0  0
   -3.2324   -5.2121    0.0000 C   0  0  0  0  0  0  0  0  0  0  0  0
   -3.9885   -3.9166    0.0000 C   0  0  0  0  0  0  0  0  0  0  0  0
   -3.2446   -2.6141    0.0000 C   0  0  0  0  0  0  0  0  0  0  0  0
   -1.7447   -2.6070    0.0000 C   0  0  0  0  0  0  0  0  0  0  0  0
   -1.0008   -1.3045    0.0000 O   0  0  0  0  0  0  0  0  0  0  0  0
    0.4992   -1.2974    0.0000 C   0  0  0  0  0  0  0  0  0  0  0  0
   -5.4885   -3.9237    0.0000 O   0  0  0  0  0  0  0  0  0  0  0  0
   -6.2446   -2.6282    0.0000 C   0  0  0  0  0  0  0  0  0  0  0  0
   -3.9763   -6.5147    0.0000 O   0  0  0  0  0  0  0  0  0  0  0  0
   -3.2202   -7.8102    0.0000 C   0  0  0  0  0  0  0  0  0  0  0  0
  1  2  2  0  0  0  0
  1  6  1  0  0  0  0
  2  3  1  0  0  0  0
  3  4  2  0  0  0  0
  4  5  1  0  0  0  0
  5  6  2  0  0  0  0
  5 11  1  0  0  0  0
  6  7  1  0  0  0  0
  7  8  2  0  0  0  0
  8  9  1  0  0  0  0
  9 10  2  0  0  0  0
  9 11  1  0  0  0  0
  1 12  1  0  0  0  0
 13 14  1  0  0  0  0
 14 15  1  0  0  0  0
 14 16  1  6  0  0  0
 16 17  1  0  0  0  0
 16 18  1  0  0  0  0
 16 19  1  0  0  0  0
  2 15  1  0  0  0  0
  3 13  1  0  0  0  0
 21 20  1  6  0  0  0
 21 22  1  0  0  0  0
 21 26  1  0  0  0  0
 22 23  1  0  0  0  0
 22 31  1  1  0  0  0
 23 24  1  0  0  0  0
 23 30  1  6  0  0  0
 24 25  1  0  0  0  0
 24 29  1  1  0  0  0
 25 26  1  0  0  0  0
 25 27  1  6  0  0  0
 27 28  1  0  0  0  0
  4 20  1  0  0  0  0
  8 32  1  0  0  0  0
 33 34  1  0  0  0  0
 33 38  2  0  0  0  0
 34 35  2  0  0  0  0
 35 36  1  0  0  0  0
 35 43  1  0  0  0  0
 36 37  2  0  0  0  0
 36 41  1  0  0  0  0
 37 38  1  0  0  0  0
 38 39  1  0  0  0  0
 39 40  1  0  0  0  0
 41 42  1  0  0  0  0
 43 44  1  0  0  0  0
  7 40  1  0  0  0  0
M  END
> <score_KierA2>
0.516736

$$$$
suggested molecule #151
 MOE2019            2D

 44 48  0  0  1  0  0  0  0  0999 V2000
    3.4992   -1.2833    0.0000 C   0  0  0  0  0  0  0  0  0  1  0  0
    4.9992   -1.2762    0.0000 C   0  0  0  0  0  0  0  0  0  2  0  0
    5.7430    0.0263    0.0000 C   0  0  0  0  0  0  0  0  0  3  0  0
    4.9869    1.3218    0.0000 C   0  0  0  0  0  0  0  0  0  4  0  0
    3.4870    1.3147    0.0000 C   0  0  0  0  0  0  0  0  0  5  0  0
    2.7431    0.0122    0.0000 C   0  0  0  0  0  0  0  0  0  6  0  0
    1.2431    0.0051    0.0000 C   0  0  0  0  0  0  0  0  0  7  0  0
    0.4870    1.3006    0.0000 C   0  0  0  0  0  0  0  0  0  8  0  0
    1.2309    2.6032    0.0000 C   0  0  0  0  0  0  0  0  0  9  0  0
    0.4748    3.8987    0.0000 O   0  0  0  0  0  0  0  0  0 10  0  0
    2.7309    2.6102    0.0000 O   0  0  0  0  0  0  0  0  0 11  0  0
    2.9041   -2.3253    0.0000 H   0  0  0  0  0  0  0  0  0  0  0  0
    7.2117   -0.2787    0.0000 O   0  0  0  0  0  0  0  0  0  0  0  0
    7.3755   -1.7697    0.0000 C   0  0  1  0  0  0  0  0  0  0  0  0
    6.0081   -2.3862    0.0000 C   0  0  0  0  0  0  0  0  0  0  0  0
    8.6781   -2.5136    0.0000 C   0  0  0  0  0  0  0  0  0  0  0  0
    9.4220   -1.2110    0.0000 C   0  0  0  0  0  0  0  0  0  0  0  0
    7.9342   -3.8161    0.0000 C   0  0  0  0  0  0  0  0  0  0  0  0
    9.9806   -3.2575    0.0000 O   0  0  0  0  0  0  0  0  0  0  0  0
    5.7308    2.6244    0.0000 O   0  0  0  0  0  0  0  0  0  0  0  0
    4.9747    3.9198    0.0000 C   0  0  1  0  0  0  0  0  0  0  0  0
    5.7186    5.2224    0.0000 C   0  0  1  0  0  0  0  0  0  0  0  0
    4.9625    6.5179    0.0000 C   0  0  2  0  0  0  0  0  0  0  0  0
    3.4625    6.5108    0.0000 C   0  0  1  0  0  0  0  0  0  0  0  0
    2.7186    5.2083    0.0000 C   0  0  2  0  0  0  0  0  0  0  0  0
    3.4747    3.9128    0.0000 O   0  0  0  0  0  0  0  0  0  0  0  0
    1.2187    5.2012    0.0000 C   0  0  0  0  0  0  0  0  0  0  0  0
    0.4625    6.4967    0.0000 O   0  0  0  0  0  0  0  0  0  0  0  0
    2.7064    7.8063    0.0000 O   0  0  0  0  0  0  0  0  0  0  0  0
    5.7064    7.8204    0.0000 O   0  0  0  0  0  0  0  0  0  0  0  0
    7.2186    5.2295    0.0000 O   0  0  0  0  0  0  0  0  0  0  0  0
   -0.7130    1.2950    0.0000 H   0  0  0  0  0  0  0  0  0  0  0  0
   -0.9886   -3.9025    0.0000 C   0  0  0  0  0  0  0  0  0  0  0  0
   -1.7324   -5.2051    0.0000 C   0  0  0  0  0  0  0  0  0  0  0  0
   -3.2324   -5.2121    0.0000 C   0  0  0  0  0  0  0  0  0  0  0  0
   -3.9885   -3.9166    0.0000 C   0  0  0  0  0  0  0  0  0  0  0  0
   -3.2446   -2.6141    0.0000 C   0  0  0  0  0  0  0  0  0  0  0  0
   -1.7447   -2.6070    0.0000 C   0  0  0  0  0  0  0  0  0  0  0  0
   -1.0008   -1.3045    0.0000 O   0  0  0  0  0  0  0  0  0  0  0  0
    0.4992   -1.2974    0.0000 C   0  0  0  0  0  0  0  0  0  0  0  0
   -5.4885   -3.9237    0.0000 O   0  0  0  0  0  0  0  0  0  0  0  0
   -6.2446   -2.6282    0.0000 C   0  0  0  0  0  0  0  0  0  0  0  0
   -3.9763   -6.5147    0.0000 O   0  0  0  0  0  0  0  0  0  0  0  0
   -3.2202   -7.8102    0.0000 C   0  0  0  0  0  0  0  0  0  0  0  0
  1  2  2  0  0  0  0
  1  6  1  0  0  0  0
  2  3  1  0  0  0  0
  3  4  2  0  0  0  0
  4  5  1  0  0  0  0
  5  6  2  0  0  0  0
  5 11  1  0  0  0  0
  6  7  1  0  0  0  0
  7  8  2  0  0  0  0
  8  9  1  0  0  0  0
  9 10  2  0  0  0  0
  9 11  1  0  0  0  0
  1 12  1  0  0  0  0
 13 14  1  0  0  0  0
 14 15  1  0  0  0  0
 14 16  1  6  0  0  0
 16 17  1  0  0  0  0
 16 18  1  0  0  0  0
 16 19  1  0  0  0  0
  2 15  1  0  0  0  0
  3 13  1  0  0  0  0
 21 20  1  6  0  0  0
 21 22  1  0  0  0  0
 21 26  1  0  0  0  0
 22 23  1  0  0  0  0
 22 31  1  1  0  0  0
 23 24  1  0  0  0  0
 23 30  1  6  0  0  0
 24 25  1  0  0  0  0
 24 29  1  1  0  0  0
 25 26  1  0  0  0  0
 25 27  1  6  0  0  0
 27 28  1  0  0  0  0
  4 20  1  0  0  0  0
  8 32  1  0  0  0  0
 33 34  1  0  0  0  0
 33 38  2  0  0  0  0
 34 35  2  0  0  0  0
 35 36  1  0  0  0  0
 35 43  1  0  0  0  0
 36 37  2  0  0  0  0
 36 41  1  0  0  0  0
 37 38  1  0  0  0  0
 38 39  1  0  0  0  0
 39 40  1  0  0  0  0
 41 42  1  0  0  0  0
 43 44  1  0  0  0  0
  7 40  1  0  0  0  0
M  END
> <score_KierA3>
0.512189

$$$$
suggested molecule #152
 MOE2019            2D

 44 48  0  0  1  0  0  0  0  0999 V2000
    3.4992   -1.2833    0.0000 C   0  0  0  0  0  0  0  0  0  1  0  0
    4.9992   -1.2762    0.0000 C   0  0  0  0  0  0  0  0  0  2  0  0
    5.7430    0.0263    0.0000 C   0  0  0  0  0  0  0  0  0  3  0  0
    4.9869    1.3218    0.0000 C   0  0  0  0  0  0  0  0  0  4  0  0
    3.4870    1.3147    0.0000 C   0  0  0  0  0  0  0  0  0  5  0  0
    2.7431    0.0122    0.0000 C   0  0  0  0  0  0  0  0  0  6  0  0
    1.2431    0.0051    0.0000 C   0  0  0  0  0  0  0  0  0  7  0  0
    0.4870    1.3006    0.0000 C   0  0  0  0  0  0  0  0  0  8  0  0
    1.2309    2.6032    0.0000 C   0  0  0  0  0  0  0  0  0  9  0  0
    0.4748    3.8987    0.0000 O   0  0  0  0  0  0  0  0  0 10  0  0
    2.7309    2.6102    0.0000 O   0  0  0  0  0  0  0  0  0 11  0  0
    2.9041   -2.3253    0.0000 H   0  0  0  0  0  0  0  0  0  0  0  0
    7.2117   -0.2787    0.0000 O   0  0  0  0  0  0  0  0  0  0  0  0
    7.3755   -1.7697    0.0000 C   0  0  1  0  0  0  0  0  0  0  0  0
    6.0081   -2.3862    0.0000 C   0  0  0  0  0  0  0  0  0  0  0  0
    8.6781   -2.5136    0.0000 C   0  0  0  0  0  0  0  0  0  0  0  0
    9.4220   -1.2110    0.0000 C   0  0  0  0  0  0  0  0  0  0  0  0
    7.9342   -3.8161    0.0000 C   0  0  0  0  0  0  0  0  0  0  0  0
    9.9806   -3.2575    0.0000 O   0  0  0  0  0  0  0  0  0  0  0  0
    5.7308    2.6244    0.0000 O   0  0  0  0  0  0  0  0  0  0  0  0
    4.9747    3.9198    0.0000 C   0  0  1  0  0  0  0  0  0  0  0  0
    5.7186    5.2224    0.0000 C   0  0  1  0  0  0  0  0  0  0  0  0
    4.9625    6.5179    0.0000 C   0  0  2  0  0  0  0  0  0  0  0  0
    3.4625    6.5108    0.0000 C   0  0  1  0  0  0  0  0  0  0  0  0
    2.7186    5.2083    0.0000 C   0  0  2  0  0  0  0  0  0  0  0  0
    3.4747    3.9128    0.0000 O   0  0  0  0  0  0  0  0  0  0  0  0
    1.2187    5.2012    0.0000 C   0  0  0  0  0  0  0  0  0  0  0  0
    0.4625    6.4967    0.0000 O   0  0  0  0  0  0  0  0  0  0  0  0
    2.7064    7.8063    0.0000 O   0  0  0  0  0  0  0  0  0  0  0  0
    5.7064    7.8204    0.0000 O   0  0  0  0  0  0  0  0  0  0  0  0
    7.2186    5.2295    0.0000 O   0  0  0  0  0  0  0  0  0  0  0  0
   -0.7130    1.2950    0.0000 H   0  0  0  0  0  0  0  0  0  0  0  0
   -0.9886   -3.9025    0.0000 C   0  0  0  0  0  0  0  0  0  0  0  0
   -1.7324   -5.2051    0.0000 C   0  0  0  0  0  0  0  0  0  0  0  0
   -3.2324   -5.2121    0.0000 C   0  0  0  0  0  0  0  0  0  0  0  0
   -3.9885   -3.9166    0.0000 C   0  0  0  0  0  0  0  0  0  0  0  0
   -3.2446   -2.6141    0.0000 C   0  0  0  0  0  0  0  0  0  0  0  0
   -1.7447   -2.6070    0.0000 C   0  0  0  0  0  0  0  0  0  0  0  0
   -1.0008   -1.3045    0.0000 O   0  0  0  0  0  0  0  0  0  0  0  0
    0.4992   -1.2974    0.0000 C   0  0  0  0  0  0  0  0  0  0  0  0
   -5.4885   -3.9237    0.0000 O   0  0  0  0  0  0  0  0  0  0  0  0
   -6.2446   -2.6282    0.0000 C   0  0  0  0  0  0  0  0  0  0  0  0
   -3.9763   -6.5147    0.0000 O   0  0  0  0  0  0  0  0  0  0  0  0
   -3.2202   -7.8102    0.0000 C   0  0  0  0  0  0  0  0  0  0  0  0
  1  2  2  0  0  0  0
  1  6  1  0  0  0  0
  2  3  1  0  0  0  0
  3  4  2  0  0  0  0
  4  5  1  0  0  0  0
  5  6  2  0  0  0  0
  5 11  1  0  0  0  0
  6  7  1  0  0  0  0
  7  8  2  0  0  0  0
  8  9  1  0  0  0  0
  9 10  2  0  0  0  0
  9 11  1  0  0  0  0
  1 12  1  0  0  0  0
 13 14  1  0  0  0  0
 14 15  1  0  0  0  0
 14 16  1  6  0  0  0
 16 17  1  0  0  0  0
 16 18  1  0  0  0  0
 16 19  1  0  0  0  0
  2 15  1  0  0  0  0
  3 13  1  0  0  0  0
 21 20  1  6  0  0  0
 21 22  1  0  0  0  0
 21 26  1  0  0  0  0
 22 23  1  0  0  0  0
 22 31  1  1  0  0  0
 23 24  1  0  0  0  0
 23 30  1  6  0  0  0
 24 25  1  0  0  0  0
 24 29  1  1  0  0  0
 25 26  1  0  0  0  0
 25 27  1  6  0  0  0
 27 28  1  0  0  0  0
  4 20  1  0  0  0  0
  8 32  1  0  0  0  0
 33 34  1  0  0  0  0
 33 38  2  0  0  0  0
 34 35  2  0  0  0  0
 35 36  1  0  0  0  0
 35 43  1  0  0  0  0
 36 37  2  0  0  0  0
 36 41  1  0  0  0  0
 37 38  1  0  0  0  0
 38 39  1  0  0  0  0
 39 40  1  0  0  0  0
 41 42  1  0  0  0  0
 43 44  1  0  0  0  0
  7 40  1  0  0  0  0
M  END
> <score_KierFlex>
0.516376

$$$$
suggested molecule #153
 MOE2019            2D

 33 36  0  0  1  0  0  0  0  0999 V2000
    3.4992   -1.2833    0.0000 C   0  0  0  0  0  0  0  0  0  1  0  0
    4.9992   -1.2762    0.0000 C   0  0  0  0  0  0  0  0  0  2  0  0
    5.7430    0.0263    0.0000 C   0  0  0  0  0  0  0  0  0  3  0  0
    4.9869    1.3218    0.0000 C   0  0  0  0  0  0  0  0  0  4  0  0
    3.4870    1.3147    0.0000 C   0  0  0  0  0  0  0  0  0  5  0  0
    2.7431    0.0122    0.0000 C   0  0  0  0  0  0  0  0  0  6  0  0
    1.2431    0.0051    0.0000 C   0  0  0  0  0  0  0  0  0  7  0  0
    0.4870    1.3006    0.0000 C   0  0  0  0  0  0  0  0  0  8  0  0
    1.2309    2.6032    0.0000 C   0  0  0  0  0  0  0  0  0  9  0  0
    0.4748    3.8987    0.0000 O   0  0  0  0  0  0  0  0  0 10  0  0
    2.7309    2.6102    0.0000 O   0  0  0  0  0  0  0  0  0 11  0  0
    2.9041   -2.3253    0.0000 H   0  0  0  0  0  0  0  0  0  0  0  0
    7.9342   -3.8161    0.0000 C   0  0  0  0  0  0  0  0  0  0  0  0
    8.6781   -2.5136    0.0000 C   0  0  0  0  0  0  0  0  0  0  0  0
    9.4220   -1.2110    0.0000 C   0  0  0  0  0  0  0  0  0  0  0  0
    7.3755   -1.7697    0.0000 C   0  0  1  0  0  0  0  0  0  0  0  0
    6.0081   -2.3862    0.0000 C   0  0  0  0  0  0  0  0  0  0  0  0
    7.2117   -0.2787    0.0000 O   0  0  0  0  0  0  0  0  0  0  0  0
    9.9806   -3.2575    0.0000 O   0  0  0  0  0  0  0  0  0  0  0  0
    9.9877   -4.7574    0.0000 C   0  0  1  0  0  0  0  0  0  0  0  0
   11.2902   -5.5013    0.0000 C   0  0  1  0  0  0  0  0  0  0  0  0
   11.2973   -7.0013    0.0000 C   0  0  2  0  0  0  0  0  0  0  0  0
   10.0018   -7.7574    0.0000 C   0  0  1  0  0  0  0  0  0  0  0  0
    8.6992   -7.0135    0.0000 C   0  0  2  0  0  0  0  0  0  0  0  0
    8.6922   -5.5135    0.0000 O   0  0  0  0  0  0  0  0  0  0  0  0
    7.4037   -7.7696    0.0000 C   0  0  0  0  0  0  0  0  0  0  0  0
    7.4108   -9.2696    0.0000 O   0  0  0  0  0  0  0  0  0  0  0  0
   10.0088   -9.2574    0.0000 O   0  0  0  0  0  0  0  0  0  0  0  0
   12.5998   -7.7452    0.0000 O   0  0  0  0  0  0  0  0  0  0  0  0
   12.5857   -4.7452    0.0000 O   0  0  0  0  0  0  0  0  0  0  0  0
    5.7308    2.6244    0.0000 O   0  0  0  0  0  0  0  0  0  0  0  0
   -0.7130    1.2950    0.0000 H   0  0  0  0  0  0  0  0  0  0  0  0
    0.4992   -1.2974    0.0000 C   0  0  0  0  0  0  0  0  0  0  0  0
  1  2  2  0  0  0  0
  1  6  1  0  0  0  0
  2  3  1  0  0  0  0
  3  4  2  0  0  0  0
  4  5  1  0  0  0  0
  5  6  2  0  0  0  0
  5 11  1  0  0  0  0
  6  7  1  0  0  0  0
  7  8  2  0  0  0  0
  8  9  1  0  0  0  0
  9 10  2  0  0  0  0
  9 11  1  0  0  0  0
  1 12  1  0  0  0  0
 13 14  1  0  0  0  0
 14 15  1  0  0  0  0
 16 14  1  1  0  0  0
 14 19  1  0  0  0  0
 16 17  1  0  0  0  0
 16 18  1  0  0  0  0
 20 19  1  1  0  0  0
 20 21  1  0  0  0  0
 20 25  1  0  0  0  0
 21 22  1  0  0  0  0
 21 30  1  6  0  0  0
 22 23  1  0  0  0  0
 22 29  1  1  0  0  0
 23 24  1  0  0  0  0
 23 28  1  6  0  0  0
 24 25  1  0  0  0  0
 24 26  1  1  0  0  0
 26 27  1  0  0  0  0
  2 17  1  0  0  0  0
  3 18  1  0  0  0  0
  4 31  1  0  0  0  0
  8 32  1  0  0  0  0
  7 33  1  0  0  0  0
M  END
> <score_Kier1>
0.517954

$$$$
suggested molecule #154
 MOE2019            2D

 33 36  0  0  1  0  0  0  0  0999 V2000
    3.4992   -1.2833    0.0000 C   0  0  0  0  0  0  0  0  0  1  0  0
    4.9992   -1.2762    0.0000 C   0  0  0  0  0  0  0  0  0  2  0  0
    5.7430    0.0263    0.0000 C   0  0  0  0  0  0  0  0  0  3  0  0
    4.9869    1.3218    0.0000 C   0  0  0  0  0  0  0  0  0  4  0  0
    3.4870    1.3147    0.0000 C   0  0  0  0  0  0  0  0  0  5  0  0
    2.7431    0.0122    0.0000 C   0  0  0  0  0  0  0  0  0  6  0  0
    1.2431    0.0051    0.0000 C   0  0  0  0  0  0  0  0  0  7  0  0
    0.4870    1.3006    0.0000 C   0  0  0  0  0  0  0  0  0  8  0  0
    1.2309    2.6032    0.0000 C   0  0  0  0  0  0  0  0  0  9  0  0
    0.4748    3.8987    0.0000 O   0  0  0  0  0  0  0  0  0 10  0  0
    2.7309    2.6102    0.0000 O   0  0  0  0  0  0  0  0  0 11  0  0
    2.9041   -2.3253    0.0000 H   0  0  0  0  0  0  0  0  0  0  0  0
    7.9342   -3.8161    0.0000 C   0  0  0  0  0  0  0  0  0  0  0  0
    8.6781   -2.5136    0.0000 C   0  0  0  0  0  0  0  0  0  0  0  0
    9.4220   -1.2110    0.0000 C   0  0  0  0  0  0  0  0  0  0  0  0
    7.3755   -1.7697    0.0000 C   0  0  1  0  0  0  0  0  0  0  0  0
    6.0081   -2.3862    0.0000 C   0  0  0  0  0  0  0  0  0  0  0  0
    7.2117   -0.2787    0.0000 O   0  0  0  0  0  0  0  0  0  0  0  0
    9.9806   -3.2575    0.0000 O   0  0  0  0  0  0  0  0  0  0  0  0
    9.9877   -4.7574    0.0000 C   0  0  1  0  0  0  0  0  0  0  0  0
   11.2902   -5.5013    0.0000 C   0  0  1  0  0  0  0  0  0  0  0  0
   11.2973   -7.0013    0.0000 C   0  0  2  0  0  0  0  0  0  0  0  0
   10.0018   -7.7574    0.0000 C   0  0  1  0  0  0  0  0  0  0  0  0
    8.6992   -7.0135    0.0000 C   0  0  2  0  0  0  0  0  0  0  0  0
    8.6922   -5.5135    0.0000 O   0  0  0  0  0  0  0  0  0  0  0  0
    7.4037   -7.7696    0.0000 C   0  0  0  0  0  0  0  0  0  0  0  0
    7.4108   -9.2696    0.0000 O   0  0  0  0  0  0  0  0  0  0  0  0
   10.0088   -9.2574    0.0000 O   0  0  0  0  0  0  0  0  0  0  0  0
   12.5998   -7.7452    0.0000 O   0  0  0  0  0  0  0  0  0  0  0  0
   12.5857   -4.7452    0.0000 O   0  0  0  0  0  0  0  0  0  0  0  0
    5.7308    2.6244    0.0000 O   0  0  0  0  0  0  0  0  0  0  0  0
   -0.7130    1.2950    0.0000 H   0  0  0  0  0  0  0  0  0  0  0  0
    0.4992   -1.2974    0.0000 C   0  0  0  0  0  0  0  0  0  0  0  0
  1  2  2  0  0  0  0
  1  6  1  0  0  0  0
  2  3  1  0  0  0  0
  3  4  2  0  0  0  0
  4  5  1  0  0  0  0
  5  6  2  0  0  0  0
  5 11  1  0  0  0  0
  6  7  1  0  0  0  0
  7  8  2  0  0  0  0
  8  9  1  0  0  0  0
  9 10  2  0  0  0  0
  9 11  1  0  0  0  0
  1 12  1  0  0  0  0
 13 14  1  0  0  0  0
 14 15  1  0  0  0  0
 16 14  1  1  0  0  0
 14 19  1  0  0  0  0
 16 17  1  0  0  0  0
 16 18  1  0  0  0  0
 20 19  1  1  0  0  0
 20 21  1  0  0  0  0
 20 25  1  0  0  0  0
 21 22  1  0  0  0  0
 21 30  1  6  0  0  0
 22 23  1  0  0  0  0
 22 29  1  1  0  0  0
 23 24  1  0  0  0  0
 23 28  1  6  0  0  0
 24 25  1  0  0  0  0
 24 26  1  1  0  0  0
 26 27  1  0  0  0  0
  2 17  1  0  0  0  0
  3 18  1  0  0  0  0
  4 31  1  0  0  0  0
  8 32  1  0  0  0  0
  7 33  1  0  0  0  0
M  END
> <score_Kier2>
0.516679

$$$$
suggested molecule #155
 MOE2019            2D

 33 36  0  0  1  0  0  0  0  0999 V2000
    3.4992   -1.2833    0.0000 C   0  0  0  0  0  0  0  0  0  1  0  0
    4.9992   -1.2762    0.0000 C   0  0  0  0  0  0  0  0  0  2  0  0
    5.7430    0.0263    0.0000 C   0  0  0  0  0  0  0  0  0  3  0  0
    4.9869    1.3218    0.0000 C   0  0  0  0  0  0  0  0  0  4  0  0
    3.4870    1.3147    0.0000 C   0  0  0  0  0  0  0  0  0  5  0  0
    2.7431    0.0122    0.0000 C   0  0  0  0  0  0  0  0  0  6  0  0
    1.2431    0.0051    0.0000 C   0  0  0  0  0  0  0  0  0  7  0  0
    0.4870    1.3006    0.0000 C   0  0  0  0  0  0  0  0  0  8  0  0
    1.2309    2.6032    0.0000 C   0  0  0  0  0  0  0  0  0  9  0  0
    0.4748    3.8987    0.0000 O   0  0  0  0  0  0  0  0  0 10  0  0
    2.7309    2.6102    0.0000 O   0  0  0  0  0  0  0  0  0 11  0  0
    2.9041   -2.3253    0.0000 H   0  0  0  0  0  0  0  0  0  0  0  0
    7.9342   -3.8161    0.0000 C   0  0  0  0  0  0  0  0  0  0  0  0
    8.6781   -2.5136    0.0000 C   0  0  0  0  0  0  0  0  0  0  0  0
    9.4220   -1.2110    0.0000 C   0  0  0  0  0  0  0  0  0  0  0  0
    7.3755   -1.7697    0.0000 C   0  0  1  0  0  0  0  0  0  0  0  0
    6.0081   -2.3862    0.0000 C   0  0  0  0  0  0  0  0  0  0  0  0
    7.2117   -0.2787    0.0000 O   0  0  0  0  0  0  0  0  0  0  0  0
    9.9806   -3.2575    0.0000 O   0  0  0  0  0  0  0  0  0  0  0  0
    9.9877   -4.7574    0.0000 C   0  0  1  0  0  0  0  0  0  0  0  0
   11.2902   -5.5013    0.0000 C   0  0  1  0  0  0  0  0  0  0  0  0
   11.2973   -7.0013    0.0000 C   0  0  2  0  0  0  0  0  0  0  0  0
   10.0018   -7.7574    0.0000 C   0  0  1  0  0  0  0  0  0  0  0  0
    8.6992   -7.0135    0.0000 C   0  0  2  0  0  0  0  0  0  0  0  0
    8.6922   -5.5135    0.0000 O   0  0  0  0  0  0  0  0  0  0  0  0
    7.4037   -7.7696    0.0000 C   0  0  0  0  0  0  0  0  0  0  0  0
    7.4108   -9.2696    0.0000 O   0  0  0  0  0  0  0  0  0  0  0  0
   10.0088   -9.2574    0.0000 O   0  0  0  0  0  0  0  0  0  0  0  0
   12.5998   -7.7452    0.0000 O   0  0  0  0  0  0  0  0  0  0  0  0
   12.5857   -4.7452    0.0000 O   0  0  0  0  0  0  0  0  0  0  0  0
    5.7308    2.6244    0.0000 O   0  0  0  0  0  0  0  0  0  0  0  0
   -0.7130    1.2950    0.0000 H   0  0  0  0  0  0  0  0  0  0  0  0
    0.4992   -1.2974    0.0000 C   0  0  0  0  0  0  0  0  0  0  0  0
  1  2  2  0  0  0  0
  1  6  1  0  0  0  0
  2  3  1  0  0  0  0
  3  4  2  0  0  0  0
  4  5  1  0  0  0  0
  5  6  2  0  0  0  0
  5 11  1  0  0  0  0
  6  7  1  0  0  0  0
  7  8  2  0  0  0  0
  8  9  1  0  0  0  0
  9 10  2  0  0  0  0
  9 11  1  0  0  0  0
  1 12  1  0  0  0  0
 13 14  1  0  0  0  0
 14 15  1  0  0  0  0
 16 14  1  1  0  0  0
 14 19  1  0  0  0  0
 16 17  1  0  0  0  0
 16 18  1  0  0  0  0
 20 19  1  1  0  0  0
 20 21  1  0  0  0  0
 20 25  1  0  0  0  0
 21 22  1  0  0  0  0
 21 30  1  6  0  0  0
 22 23  1  0  0  0  0
 22 29  1  1  0  0  0
 23 24  1  0  0  0  0
 23 28  1  6  0  0  0
 24 25  1  0  0  0  0
 24 26  1  1  0  0  0
 26 27  1  0  0  0  0
  2 17  1  0  0  0  0
  3 18  1  0  0  0  0
  4 31  1  0  0  0  0
  8 32  1  0  0  0  0
  7 33  1  0  0  0  0
M  END
> <score_Kier3>
0.51186

$$$$
suggested molecule #156
 MOE2019            2D

 33 36  0  0  1  0  0  0  0  0999 V2000
    3.4992   -1.2833    0.0000 C   0  0  0  0  0  0  0  0  0  1  0  0
    4.9992   -1.2762    0.0000 C   0  0  0  0  0  0  0  0  0  2  0  0
    5.7430    0.0263    0.0000 C   0  0  0  0  0  0  0  0  0  3  0  0
    4.9869    1.3218    0.0000 C   0  0  0  0  0  0  0  0  0  4  0  0
    3.4870    1.3147    0.0000 C   0  0  0  0  0  0  0  0  0  5  0  0
    2.7431    0.0122    0.0000 C   0  0  0  0  0  0  0  0  0  6  0  0
    1.2431    0.0051    0.0000 C   0  0  0  0  0  0  0  0  0  7  0  0
    0.4870    1.3006    0.0000 C   0  0  0  0  0  0  0  0  0  8  0  0
    1.2309    2.6032    0.0000 C   0  0  0  0  0  0  0  0  0  9  0  0
    0.4748    3.8987    0.0000 O   0  0  0  0  0  0  0  0  0 10  0  0
    2.7309    2.6102    0.0000 O   0  0  0  0  0  0  0  0  0 11  0  0
    2.9041   -2.3253    0.0000 H   0  0  0  0  0  0  0  0  0  0  0  0
    7.9342   -3.8161    0.0000 C   0  0  0  0  0  0  0  0  0  0  0  0
    8.6781   -2.5136    0.0000 C   0  0  0  0  0  0  0  0  0  0  0  0
    9.4220   -1.2110    0.0000 C   0  0  0  0  0  0  0  0  0  0  0  0
    7.3755   -1.7697    0.0000 C   0  0  1  0  0  0  0  0  0  0  0  0
    6.0081   -2.3862    0.0000 C   0  0  0  0  0  0  0  0  0  0  0  0
    7.2117   -0.2787    0.0000 O   0  0  0  0  0  0  0  0  0  0  0  0
    9.9806   -3.2575    0.0000 O   0  0  0  0  0  0  0  0  0  0  0  0
    9.9877   -4.7574    0.0000 C   0  0  1  0  0  0  0  0  0  0  0  0
   11.2902   -5.5013    0.0000 C   0  0  1  0  0  0  0  0  0  0  0  0
   11.2973   -7.0013    0.0000 C   0  0  2  0  0  0  0  0  0  0  0  0
   10.0018   -7.7574    0.0000 C   0  0  1  0  0  0  0  0  0  0  0  0
    8.6992   -7.0135    0.0000 C   0  0  2  0  0  0  0  0  0  0  0  0
    8.6922   -5.5135    0.0000 O   0  0  0  0  0  0  0  0  0  0  0  0
    7.4037   -7.7696    0.0000 C   0  0  0  0  0  0  0  0  0  0  0  0
    7.4108   -9.2696    0.0000 O   0  0  0  0  0  0  0  0  0  0  0  0
   10.0088   -9.2574    0.0000 O   0  0  0  0  0  0  0  0  0  0  0  0
   12.5998   -7.7452    0.0000 O   0  0  0  0  0  0  0  0  0  0  0  0
   12.5857   -4.7452    0.0000 O   0  0  0  0  0  0  0  0  0  0  0  0
    5.7308    2.6244    0.0000 O   0  0  0  0  0  0  0  0  0  0  0  0
   -0.7130    1.2950    0.0000 H   0  0  0  0  0  0  0  0  0  0  0  0
    0.4992   -1.2974    0.0000 C   0  0  0  0  0  0  0  0  0  0  0  0
  1  2  2  0  0  0  0
  1  6  1  0  0  0  0
  2  3  1  0  0  0  0
  3  4  2  0  0  0  0
  4  5  1  0  0  0  0
  5  6  2  0  0  0  0
  5 11  1  0  0  0  0
  6  7  1  0  0  0  0
  7  8  2  0  0  0  0
  8  9  1  0  0  0  0
  9 10  2  0  0  0  0
  9 11  1  0  0  0  0
  1 12  1  0  0  0  0
 13 14  1  0  0  0  0
 14 15  1  0  0  0  0
 16 14  1  1  0  0  0
 14 19  1  0  0  0  0
 16 17  1  0  0  0  0
 16 18  1  0  0  0  0
 20 19  1  1  0  0  0
 20 21  1  0  0  0  0
 20 25  1  0  0  0  0
 21 22  1  0  0  0  0
 21 30  1  6  0  0  0
 22 23  1  0  0  0  0
 22 29  1  1  0  0  0
 23 24  1  0  0  0  0
 23 28  1  6  0  0  0
 24 25  1  0  0  0  0
 24 26  1  1  0  0  0
 26 27  1  0  0  0  0
  2 17  1  0  0  0  0
  3 18  1  0  0  0  0
  4 31  1  0  0  0  0
  8 32  1  0  0  0  0
  7 33  1  0  0  0  0
M  END
> <score_KierA1>
0.517945

$$$$
suggested molecule #157
 MOE2019            2D

 33 36  0  0  1  0  0  0  0  0999 V2000
    3.4992   -1.2833    0.0000 C   0  0  0  0  0  0  0  0  0  1  0  0
    4.9992   -1.2762    0.0000 C   0  0  0  0  0  0  0  0  0  2  0  0
    5.7430    0.0263    0.0000 C   0  0  0  0  0  0  0  0  0  3  0  0
    4.9869    1.3218    0.0000 C   0  0  0  0  0  0  0  0  0  4  0  0
    3.4870    1.3147    0.0000 C   0  0  0  0  0  0  0  0  0  5  0  0
    2.7431    0.0122    0.0000 C   0  0  0  0  0  0  0  0  0  6  0  0
    1.2431    0.0051    0.0000 C   0  0  0  0  0  0  0  0  0  7  0  0
    0.4870    1.3006    0.0000 C   0  0  0  0  0  0  0  0  0  8  0  0
    1.2309    2.6032    0.0000 C   0  0  0  0  0  0  0  0  0  9  0  0
    0.4748    3.8987    0.0000 O   0  0  0  0  0  0  0  0  0 10  0  0
    2.7309    2.6102    0.0000 O   0  0  0  0  0  0  0  0  0 11  0  0
    2.9041   -2.3253    0.0000 H   0  0  0  0  0  0  0  0  0  0  0  0
    7.9342   -3.8161    0.0000 C   0  0  0  0  0  0  0  0  0  0  0  0
    8.6781   -2.5136    0.0000 C   0  0  0  0  0  0  0  0  0  0  0  0
    9.4220   -1.2110    0.0000 C   0  0  0  0  0  0  0  0  0  0  0  0
    7.3755   -1.7697    0.0000 C   0  0  1  0  0  0  0  0  0  0  0  0
    6.0081   -2.3862    0.0000 C   0  0  0  0  0  0  0  0  0  0  0  0
    7.2117   -0.2787    0.0000 O   0  0  0  0  0  0  0  0  0  0  0  0
    9.9806   -3.2575    0.0000 O   0  0  0  0  0  0  0  0  0  0  0  0
    9.9877   -4.7574    0.0000 C   0  0  1  0  0  0  0  0  0  0  0  0
   11.2902   -5.5013    0.0000 C   0  0  1  0  0  0  0  0  0  0  0  0
   11.2973   -7.0013    0.0000 C   0  0  2  0  0  0  0  0  0  0  0  0
   10.0018   -7.7574    0.0000 C   0  0  1  0  0  0  0  0  0  0  0  0
    8.6992   -7.0135    0.0000 C   0  0  2  0  0  0  0  0  0  0  0  0
    8.6922   -5.5135    0.0000 O   0  0  0  0  0  0  0  0  0  0  0  0
    7.4037   -7.7696    0.0000 C   0  0  0  0  0  0  0  0  0  0  0  0
    7.4108   -9.2696    0.0000 O   0  0  0  0  0  0  0  0  0  0  0  0
   10.0088   -9.2574    0.0000 O   0  0  0  0  0  0  0  0  0  0  0  0
   12.5998   -7.7452    0.0000 O   0  0  0  0  0  0  0  0  0  0  0  0
   12.5857   -4.7452    0.0000 O   0  0  0  0  0  0  0  0  0  0  0  0
    5.7308    2.6244    0.0000 O   0  0  0  0  0  0  0  0  0  0  0  0
   -0.7130    1.2950    0.0000 H   0  0  0  0  0  0  0  0  0  0  0  0
    0.4992   -1.2974    0.0000 C   0  0  0  0  0  0  0  0  0  0  0  0
  1  2  2  0  0  0  0
  1  6  1  0  0  0  0
  2  3  1  0  0  0  0
  3  4  2  0  0  0  0
  4  5  1  0  0  0  0
  5  6  2  0  0  0  0
  5 11  1  0  0  0  0
  6  7  1  0  0  0  0
  7  8  2  0  0  0  0
  8  9  1  0  0  0  0
  9 10  2  0  0  0  0
  9 11  1  0  0  0  0
  1 12  1  0  0  0  0
 13 14  1  0  0  0  0
 14 15  1  0  0  0  0
 16 14  1  1  0  0  0
 14 19  1  0  0  0  0
 16 17  1  0  0  0  0
 16 18  1  0  0  0  0
 20 19  1  1  0  0  0
 20 21  1  0  0  0  0
 20 25  1  0  0  0  0
 21 22  1  0  0  0  0
 21 30  1  6  0  0  0
 22 23  1  0  0  0  0
 22 29  1  1  0  0  0
 23 24  1  0  0  0  0
 23 28  1  6  0  0  0
 24 25  1  0  0  0  0
 24 26  1  1  0  0  0
 26 27  1  0  0  0  0
  2 17  1  0  0  0  0
  3 18  1  0  0  0  0
  4 31  1  0  0  0  0
  8 32  1  0  0  0  0
  7 33  1  0  0  0  0
M  END
> <score_KierA2>
0.51703

$$$$
suggested molecule #158
 MOE2019            2D

 33 36  0  0  1  0  0  0  0  0999 V2000
    3.4992   -1.2833    0.0000 C   0  0  0  0  0  0  0  0  0  1  0  0
    4.9992   -1.2762    0.0000 C   0  0  0  0  0  0  0  0  0  2  0  0
    5.7430    0.0263    0.0000 C   0  0  0  0  0  0  0  0  0  3  0  0
    4.9869    1.3218    0.0000 C   0  0  0  0  0  0  0  0  0  4  0  0
    3.4870    1.3147    0.0000 C   0  0  0  0  0  0  0  0  0  5  0  0
    2.7431    0.0122    0.0000 C   0  0  0  0  0  0  0  0  0  6  0  0
    1.2431    0.0051    0.0000 C   0  0  0  0  0  0  0  0  0  7  0  0
    0.4870    1.3006    0.0000 C   0  0  0  0  0  0  0  0  0  8  0  0
    1.2309    2.6032    0.0000 C   0  0  0  0  0  0  0  0  0  9  0  0
    0.4748    3.8987    0.0000 O   0  0  0  0  0  0  0  0  0 10  0  0
    2.7309    2.6102    0.0000 O   0  0  0  0  0  0  0  0  0 11  0  0
    2.9041   -2.3253    0.0000 H   0  0  0  0  0  0  0  0  0  0  0  0
    7.9342   -3.8161    0.0000 C   0  0  0  0  0  0  0  0  0  0  0  0
    8.6781   -2.5136    0.0000 C   0  0  0  0  0  0  0  0  0  0  0  0
    9.4220   -1.2110    0.0000 C   0  0  0  0  0  0  0  0  0  0  0  0
    7.3755   -1.7697    0.0000 C   0  0  1  0  0  0  0  0  0  0  0  0
    6.0081   -2.3862    0.0000 C   0  0  0  0  0  0  0  0  0  0  0  0
    7.2117   -0.2787    0.0000 O   0  0  0  0  0  0  0  0  0  0  0  0
    9.9806   -3.2575    0.0000 O   0  0  0  0  0  0  0  0  0  0  0  0
    9.9877   -4.7574    0.0000 C   0  0  1  0  0  0  0  0  0  0  0  0
   11.2902   -5.5013    0.0000 C   0  0  1  0  0  0  0  0  0  0  0  0
   11.2973   -7.0013    0.0000 C   0  0  2  0  0  0  0  0  0  0  0  0
   10.0018   -7.7574    0.0000 C   0  0  1  0  0  0  0  0  0  0  0  0
    8.6992   -7.0135    0.0000 C   0  0  2  0  0  0  0  0  0  0  0  0
    8.6922   -5.5135    0.0000 O   0  0  0  0  0  0  0  0  0  0  0  0
    7.4037   -7.7696    0.0000 C   0  0  0  0  0  0  0  0  0  0  0  0
    7.4108   -9.2696    0.0000 O   0  0  0  0  0  0  0  0  0  0  0  0
   10.0088   -9.2574    0.0000 O   0  0  0  0  0  0  0  0  0  0  0  0
   12.5998   -7.7452    0.0000 O   0  0  0  0  0  0  0  0  0  0  0  0
   12.5857   -4.7452    0.0000 O   0  0  0  0  0  0  0  0  0  0  0  0
    5.7308    2.6244    0.0000 O   0  0  0  0  0  0  0  0  0  0  0  0
   -0.7130    1.2950    0.0000 H   0  0  0  0  0  0  0  0  0  0  0  0
    0.4992   -1.2974    0.0000 C   0  0  0  0  0  0  0  0  0  0  0  0
  1  2  2  0  0  0  0
  1  6  1  0  0  0  0
  2  3  1  0  0  0  0
  3  4  2  0  0  0  0
  4  5  1  0  0  0  0
  5  6  2  0  0  0  0
  5 11  1  0  0  0  0
  6  7  1  0  0  0  0
  7  8  2  0  0  0  0
  8  9  1  0  0  0  0
  9 10  2  0  0  0  0
  9 11  1  0  0  0  0
  1 12  1  0  0  0  0
 13 14  1  0  0  0  0
 14 15  1  0  0  0  0
 16 14  1  1  0  0  0
 14 19  1  0  0  0  0
 16 17  1  0  0  0  0
 16 18  1  0  0  0  0
 20 19  1  1  0  0  0
 20 21  1  0  0  0  0
 20 25  1  0  0  0  0
 21 22  1  0  0  0  0
 21 30  1  6  0  0  0
 22 23  1  0  0  0  0
 22 29  1  1  0  0  0
 23 24  1  0  0  0  0
 23 28  1  6  0  0  0
 24 25  1  0  0  0  0
 24 26  1  1  0  0  0
 26 27  1  0  0  0  0
  2 17  1  0  0  0  0
  3 18  1  0  0  0  0
  4 31  1  0  0  0  0
  8 32  1  0  0  0  0
  7 33  1  0  0  0  0
M  END
> <score_KierA3>
0.512542

$$$$
suggested molecule #159
 MOE2019            2D

 33 36  0  0  1  0  0  0  0  0999 V2000
    3.4992   -1.2833    0.0000 C   0  0  0  0  0  0  0  0  0  1  0  0
    4.9992   -1.2762    0.0000 C   0  0  0  0  0  0  0  0  0  2  0  0
    5.7430    0.0263    0.0000 C   0  0  0  0  0  0  0  0  0  3  0  0
    4.9869    1.3218    0.0000 C   0  0  0  0  0  0  0  0  0  4  0  0
    3.4870    1.3147    0.0000 C   0  0  0  0  0  0  0  0  0  5  0  0
    2.7431    0.0122    0.0000 C   0  0  0  0  0  0  0  0  0  6  0  0
    1.2431    0.0051    0.0000 C   0  0  0  0  0  0  0  0  0  7  0  0
    0.4870    1.3006    0.0000 C   0  0  0  0  0  0  0  0  0  8  0  0
    1.2309    2.6032    0.0000 C   0  0  0  0  0  0  0  0  0  9  0  0
    0.4748    3.8987    0.0000 O   0  0  0  0  0  0  0  0  0 10  0  0
    2.7309    2.6102    0.0000 O   0  0  0  0  0  0  0  0  0 11  0  0
    2.9041   -2.3253    0.0000 H   0  0  0  0  0  0  0  0  0  0  0  0
    7.9342   -3.8161    0.0000 C   0  0  0  0  0  0  0  0  0  0  0  0
    8.6781   -2.5136    0.0000 C   0  0  0  0  0  0  0  0  0  0  0  0
    9.4220   -1.2110    0.0000 C   0  0  0  0  0  0  0  0  0  0  0  0
    7.3755   -1.7697    0.0000 C   0  0  1  0  0  0  0  0  0  0  0  0
    6.0081   -2.3862    0.0000 C   0  0  0  0  0  0  0  0  0  0  0  0
    7.2117   -0.2787    0.0000 O   0  0  0  0  0  0  0  0  0  0  0  0
    9.9806   -3.2575    0.0000 O   0  0  0  0  0  0  0  0  0  0  0  0
    9.9877   -4.7574    0.0000 C   0  0  1  0  0  0  0  0  0  0  0  0
   11.2902   -5.5013    0.0000 C   0  0  1  0  0  0  0  0  0  0  0  0
   11.2973   -7.0013    0.0000 C   0  0  2  0  0  0  0  0  0  0  0  0
   10.0018   -7.7574    0.0000 C   0  0  1  0  0  0  0  0  0  0  0  0
    8.6992   -7.0135    0.0000 C   0  0  2  0  0  0  0  0  0  0  0  0
    8.6922   -5.5135    0.0000 O   0  0  0  0  0  0  0  0  0  0  0  0
    7.4037   -7.7696    0.0000 C   0  0  0  0  0  0  0  0  0  0  0  0
    7.4108   -9.2696    0.0000 O   0  0  0  0  0  0  0  0  0  0  0  0
   10.0088   -9.2574    0.0000 O   0  0  0  0  0  0  0  0  0  0  0  0
   12.5998   -7.7452    0.0000 O   0  0  0  0  0  0  0  0  0  0  0  0
   12.5857   -4.7452    0.0000 O   0  0  0  0  0  0  0  0  0  0  0  0
    5.7308    2.6244    0.0000 O   0  0  0  0  0  0  0  0  0  0  0  0
   -0.7130    1.2950    0.0000 H   0  0  0  0  0  0  0  0  0  0  0  0
    0.4992   -1.2974    0.0000 C   0  0  0  0  0  0  0  0  0  0  0  0
  1  2  2  0  0  0  0
  1  6  1  0  0  0  0
  2  3  1  0  0  0  0
  3  4  2  0  0  0  0
  4  5  1  0  0  0  0
  5  6  2  0  0  0  0
  5 11  1  0  0  0  0
  6  7  1  0  0  0  0
  7  8  2  0  0  0  0
  8  9  1  0  0  0  0
  9 10  2  0  0  0  0
  9 11  1  0  0  0  0
  1 12  1  0  0  0  0
 13 14  1  0  0  0  0
 14 15  1  0  0  0  0
 16 14  1  1  0  0  0
 14 19  1  0  0  0  0
 16 17  1  0  0  0  0
 16 18  1  0  0  0  0
 20 19  1  1  0  0  0
 20 21  1  0  0  0  0
 20 25  1  0  0  0  0
 21 22  1  0  0  0  0
 21 30  1  6  0  0  0
 22 23  1  0  0  0  0
 22 29  1  1  0  0  0
 23 24  1  0  0  0  0
 23 28  1  6  0  0  0
 24 25  1  0  0  0  0
 24 26  1  1  0  0  0
 26 27  1  0  0  0  0
  2 17  1  0  0  0  0
  3 18  1  0  0  0  0
  4 31  1  0  0  0  0
  8 32  1  0  0  0  0
  7 33  1  0  0  0  0
M  END
> <score_KierFlex>
0.516738

$$$$
suggested molecule #160
 MOE2019            2D

 44 48  0  0  1  0  0  0  0  0999 V2000
    3.4992   -1.2833    0.0000 C   0  0  0  0  0  0  0  0  0  1  0  0
    4.9992   -1.2762    0.0000 C   0  0  0  0  0  0  0  0  0  2  0  0
    5.7430    0.0263    0.0000 C   0  0  0  0  0  0  0  0  0  3  0  0
    4.9869    1.3218    0.0000 C   0  0  0  0  0  0  0  0  0  4  0  0
    3.4870    1.3147    0.0000 C   0  0  0  0  0  0  0  0  0  5  0  0
    2.7431    0.0122    0.0000 C   0  0  0  0  0  0  0  0  0  6  0  0
    1.2431    0.0051    0.0000 C   0  0  0  0  0  0  0  0  0  7  0  0
    0.4870    1.3006    0.0000 C   0  0  0  0  0  0  0  0  0  8  0  0
    1.2309    2.6032    0.0000 C   0  0  0  0  0  0  0  0  0  9  0  0
    0.4748    3.8987    0.0000 O   0  0  0  0  0  0  0  0  0 10  0  0
    2.7309    2.6102    0.0000 O   0  0  0  0  0  0  0  0  0 11  0  0
    2.9041   -2.3253    0.0000 H   0  0  0  0  0  0  0  0  0  0  0  0
    7.9342   -3.8161    0.0000 C   0  0  0  0  0  0  0  0  0  0  0  0
    8.6781   -2.5136    0.0000 C   0  0  0  0  0  0  0  0  0  0  0  0
    9.4220   -1.2110    0.0000 C   0  0  0  0  0  0  0  0  0  0  0  0
    7.3755   -1.7697    0.0000 C   0  0  1  0  0  0  0  0  0  0  0  0
    6.0081   -2.3862    0.0000 C   0  0  0  0  0  0  0  0  0  0  0  0
    7.2117   -0.2787    0.0000 O   0  0  0  0  0  0  0  0  0  0  0  0
    9.9806   -3.2575    0.0000 O   0  0  0  0  0  0  0  0  0  0  0  0
   11.2761   -2.5013    0.0000 C   0  0  1  0  0  0  0  0  0  0  0  0
   12.5787   -3.2452    0.0000 C   0  0  1  0  0  0  0  0  0  0  0  0
   13.8742   -2.4891    0.0000 C   0  0  2  0  0  0  0  0  0  0  0  0
   13.8671   -0.9891    0.0000 C   0  0  1  0  0  0  0  0  0  0  0  0
   12.5646   -0.2453    0.0000 C   0  0  2  0  0  0  0  0  0  0  0  0
   11.2691   -1.0014    0.0000 O   0  0  0  0  0  0  0  0  0  0  0  0
   12.5575    1.2547    0.0000 C   0  0  0  0  0  0  0  0  0  0  0  0
   13.8530    2.0108    0.0000 O   0  0  0  0  0  0  0  0  0  0  0  0
   15.1626   -0.2330    0.0000 O   0  0  0  0  0  0  0  0  0  0  0  0
   15.1767   -3.2330    0.0000 O   0  0  0  0  0  0  0  0  0  0  0  0
   12.5857   -4.7452    0.0000 O   0  0  0  0  0  0  0  0  0  0  0  0
    5.7308    2.6244    0.0000 O   0  0  0  0  0  0  0  0  0  0  0  0
   -0.7130    1.2950    0.0000 H   0  0  0  0  0  0  0  0  0  0  0  0
    0.4992   -1.2974    0.0000 O   0  0  0  0  0  0  0  0  0  0  0  0
   -1.0008   -1.3045    0.0000 C   0  0  1  0  0  0  0  0  0  0  0  0
   -1.7447   -2.6070    0.0000 C   0  0  1  0  0  0  0  0  0  0  0  0
   -3.2446   -2.6141    0.0000 C   0  0  2  0  0  0  0  0  0  0  0  0
   -4.0007   -1.3186    0.0000 C   0  0  1  0  0  0  0  0  0  0  0  0
   -3.2569   -0.0160    0.0000 C   0  0  2  0  0  0  0  0  0  0  0  0
   -1.7569   -0.0090    0.0000 O   0  0  0  0  0  0  0  0  0  0  0  0
   -4.0130    1.2795    0.0000 C   0  0  0  0  0  0  0  0  0  0  0  0
   -5.5129    1.2724    0.0000 O   0  0  0  0  0  0  0  0  0  0  0  0
   -5.5007   -1.3256    0.0000 O   0  0  0  0  0  0  0  0  0  0  0  0
   -3.9885   -3.9166    0.0000 O   0  0  0  0  0  0  0  0  0  0  0  0
   -0.9886   -3.9025    0.0000 O   0  0  0  0  0  0  0  0  0  0  0  0
  1  2  2  0  0  0  0
  1  6  1  0  0  0  0
  2  3  1  0  0  0  0
  3  4  2  0  0  0  0
  4  5  1  0  0  0  0
  5  6  2  0  0  0  0
  5 11  1  0  0  0  0
  6  7  1  0  0  0  0
  7  8  2  0  0  0  0
  8  9  1  0  0  0  0
  9 10  2  0  0  0  0
  9 11  1  0  0  0  0
  1 12  1  0  0  0  0
 13 14  1  0  0  0  0
 14 15  1  0  0  0  0
 16 14  1  1  0  0  0
 14 19  1  0  0  0  0
 16 17  1  0  0  0  0
 16 18  1  0  0  0  0
 20 19  1  1  0  0  0
 20 21  1  0  0  0  0
 20 25  1  0  0  0  0
 21 22  1  0  0  0  0
 21 30  1  6  0  0  0
 22 23  1  0  0  0  0
 22 29  1  1  0  0  0
 23 24  1  0  0  0  0
 23 28  1  6  0  0  0
 24 25  1  0  0  0  0
 24 26  1  1  0  0  0
 26 27  1  0  0  0  0
  2 17  1  0  0  0  0
  3 18  1  0  0  0  0
  4 31  1  0  0  0  0
  8 32  1  0  0  0  0
 34 33  1  6  0  0  0
 34 35  1  0  0  0  0
 34 39  1  0  0  0  0
 35 36  1  0  0  0  0
 35 44  1  1  0  0  0
 36 37  1  0  0  0  0
 36 43  1  6  0  0  0
 37 38  1  0  0  0  0
 37 42  1  1  0  0  0
 38 39  1  0  0  0  0
 38 40  1  6  0  0  0
 40 41  1  0  0  0  0
  7 33  1  0  0  0  0
M  END
> <score_Kier3>
0.511464

$$$$
suggested molecule #161
 MOE2019            2D

 44 48  0  0  1  0  0  0  0  0999 V2000
    3.4992   -1.2833    0.0000 C   0  0  0  0  0  0  0  0  0  1  0  0
    4.9992   -1.2762    0.0000 C   0  0  0  0  0  0  0  0  0  2  0  0
    5.7430    0.0263    0.0000 C   0  0  0  0  0  0  0  0  0  3  0  0
    4.9869    1.3218    0.0000 C   0  0  0  0  0  0  0  0  0  4  0  0
    3.4870    1.3147    0.0000 C   0  0  0  0  0  0  0  0  0  5  0  0
    2.7431    0.0122    0.0000 C   0  0  0  0  0  0  0  0  0  6  0  0
    1.2431    0.0051    0.0000 C   0  0  0  0  0  0  0  0  0  7  0  0
    0.4870    1.3006    0.0000 C   0  0  0  0  0  0  0  0  0  8  0  0
    1.2309    2.6032    0.0000 C   0  0  0  0  0  0  0  0  0  9  0  0
    0.4748    3.8987    0.0000 O   0  0  0  0  0  0  0  0  0 10  0  0
    2.7309    2.6102    0.0000 O   0  0  0  0  0  0  0  0  0 11  0  0
    2.9041   -2.3253    0.0000 H   0  0  0  0  0  0  0  0  0  0  0  0
    7.9342   -3.8161    0.0000 C   0  0  0  0  0  0  0  0  0  0  0  0
    8.6781   -2.5136    0.0000 C   0  0  0  0  0  0  0  0  0  0  0  0
    9.4220   -1.2110    0.0000 C   0  0  0  0  0  0  0  0  0  0  0  0
    7.3755   -1.7697    0.0000 C   0  0  1  0  0  0  0  0  0  0  0  0
    6.0081   -2.3862    0.0000 C   0  0  0  0  0  0  0  0  0  0  0  0
    7.2117   -0.2787    0.0000 O   0  0  0  0  0  0  0  0  0  0  0  0
    9.9806   -3.2575    0.0000 O   0  0  0  0  0  0  0  0  0  0  0  0
   11.2761   -2.5013    0.0000 C   0  0  1  0  0  0  0  0  0  0  0  0
   12.5787   -3.2452    0.0000 C   0  0  1  0  0  0  0  0  0  0  0  0
   13.8742   -2.4891    0.0000 C   0  0  2  0  0  0  0  0  0  0  0  0
   13.8671   -0.9891    0.0000 C   0  0  1  0  0  0  0  0  0  0  0  0
   12.5646   -0.2453    0.0000 C   0  0  2  0  0  0  0  0  0  0  0  0
   11.2691   -1.0014    0.0000 O   0  0  0  0  0  0  0  0  0  0  0  0
   12.5575    1.2547    0.0000 C   0  0  0  0  0  0  0  0  0  0  0  0
   13.8530    2.0108    0.0000 O   0  0  0  0  0  0  0  0  0  0  0  0
   15.1626   -0.2330    0.0000 O   0  0  0  0  0  0  0  0  0  0  0  0
   15.1767   -3.2330    0.0000 O   0  0  0  0  0  0  0  0  0  0  0  0
   12.5857   -4.7452    0.0000 O   0  0  0  0  0  0  0  0  0  0  0  0
    5.7308    2.6244    0.0000 O   0  0  0  0  0  0  0  0  0  0  0  0
   -0.7130    1.2950    0.0000 H   0  0  0  0  0  0  0  0  0  0  0  0
    0.4992   -1.2974    0.0000 O   0  0  0  0  0  0  0  0  0  0  0  0
   -1.0008   -1.3045    0.0000 C   0  0  1  0  0  0  0  0  0  0  0  0
   -1.7447   -2.6070    0.0000 C   0  0  1  0  0  0  0  0  0  0  0  0
   -3.2446   -2.6141    0.0000 C   0  0  2  0  0  0  0  0  0  0  0  0
   -4.0007   -1.3186    0.0000 C   0  0  1  0  0  0  0  0  0  0  0  0
   -3.2569   -0.0160    0.0000 C   0  0  2  0  0  0  0  0  0  0  0  0
   -1.7569   -0.0090    0.0000 O   0  0  0  0  0  0  0  0  0  0  0  0
   -4.0130    1.2795    0.0000 C   0  0  0  0  0  0  0  0  0  0  0  0
   -5.5129    1.2724    0.0000 O   0  0  0  0  0  0  0  0  0  0  0  0
   -5.5007   -1.3256    0.0000 O   0  0  0  0  0  0  0  0  0  0  0  0
   -3.9885   -3.9166    0.0000 O   0  0  0  0  0  0  0  0  0  0  0  0
   -0.9886   -3.9025    0.0000 O   0  0  0  0  0  0  0  0  0  0  0  0
  1  2  2  0  0  0  0
  1  6  1  0  0  0  0
  2  3  1  0  0  0  0
  3  4  2  0  0  0  0
  4  5  1  0  0  0  0
  5  6  2  0  0  0  0
  5 11  1  0  0  0  0
  6  7  1  0  0  0  0
  7  8  2  0  0  0  0
  8  9  1  0  0  0  0
  9 10  2  0  0  0  0
  9 11  1  0  0  0  0
  1 12  1  0  0  0  0
 13 14  1  0  0  0  0
 14 15  1  0  0  0  0
 16 14  1  1  0  0  0
 14 19  1  0  0  0  0
 16 17  1  0  0  0  0
 16 18  1  0  0  0  0
 20 19  1  1  0  0  0
 20 21  1  0  0  0  0
 20 25  1  0  0  0  0
 21 22  1  0  0  0  0
 21 30  1  6  0  0  0
 22 23  1  0  0  0  0
 22 29  1  1  0  0  0
 23 24  1  0  0  0  0
 23 28  1  6  0  0  0
 24 25  1  0  0  0  0
 24 26  1  1  0  0  0
 26 27  1  0  0  0  0
  2 17  1  0  0  0  0
  3 18  1  0  0  0  0
  4 31  1  0  0  0  0
  8 32  1  0  0  0  0
 34 33  1  6  0  0  0
 34 35  1  0  0  0  0
 34 39  1  0  0  0  0
 35 36  1  0  0  0  0
 35 44  1  1  0  0  0
 36 37  1  0  0  0  0
 36 43  1  6  0  0  0
 37 38  1  0  0  0  0
 37 42  1  1  0  0  0
 38 39  1  0  0  0  0
 38 40  1  6  0  0  0
 40 41  1  0  0  0  0
  7 33  1  0  0  0  0
M  END
> <score_KierFlex>
0.51627

$$$$
suggested molecule #162
 MOE2019            2D

 41 45  0  0  1  0  0  0  0  0999 V2000
    3.4992   -1.2833    0.0000 C   0  0  0  0  0  0  0  0  0  1  0  0
    4.9992   -1.2762    0.0000 C   0  0  0  0  0  0  0  0  0  2  0  0
    5.7430    0.0263    0.0000 C   0  0  0  0  0  0  0  0  0  3  0  0
    4.9869    1.3218    0.0000 C   0  0  0  0  0  0  0  0  0  4  0  0
    3.4870    1.3147    0.0000 C   0  0  0  0  0  0  0  0  0  5  0  0
    2.7431    0.0122    0.0000 C   0  0  0  0  0  0  0  0  0  6  0  0
    1.2431    0.0051    0.0000 C   0  0  0  0  0  0  0  0  0  7  0  0
    0.4870    1.3006    0.0000 C   0  0  0  0  0  0  0  0  0  8  0  0
    1.2309    2.6032    0.0000 C   0  0  0  0  0  0  0  0  0  9  0  0
    0.4748    3.8987    0.0000 O   0  0  0  0  0  0  0  0  0 10  0  0
    2.7309    2.6102    0.0000 O   0  0  0  0  0  0  0  0  0 11  0  0
    2.9041   -2.3253    0.0000 H   0  0  0  0  0  0  0  0  0  0  0  0
    9.4220   -1.2110    0.0000 C   0  0  0  0  0  0  0  0  0  0  0  0
    8.6781   -2.5136    0.0000 C   0  0  0  0  0  0  0  0  0  0  0  0
    7.9342   -3.8161    0.0000 C   0  0  0  0  0  0  0  0  0  0  0  0
    7.3755   -1.7697    0.0000 C   0  0  1  0  0  0  0  0  0  0  0  0
    6.0081   -2.3862    0.0000 C   0  0  0  0  0  0  0  0  0  0  0  0
    7.2117   -0.2787    0.0000 O   0  0  0  0  0  0  0  0  0  0  0  0
    9.9806   -3.2575    0.0000 O   0  0  0  0  0  0  0  0  0  0  0  0
   11.2761   -2.5013    0.0000 C   0  0  1  0  0  0  0  0  0  0  0  0
   12.5787   -3.2452    0.0000 C   0  0  1  0  0  0  0  0  0  0  0  0
   13.8742   -2.4891    0.0000 C   0  0  2  0  0  0  0  0  0  0  0  0
   13.8671   -0.9891    0.0000 C   0  0  1  0  0  0  0  0  0  0  0  0
   12.5646   -0.2453    0.0000 C   0  0  2  0  0  0  0  0  0  0  0  0
   11.2691   -1.0014    0.0000 O   0  0  0  0  0  0  0  0  0  0  0  0
   12.5575    1.2547    0.0000 C   0  0  0  0  0  0  0  0  0  0  0  0
   13.8530    2.0108    0.0000 O   0  0  0  0  0  0  0  0  0  0  0  0
   15.1626   -0.2330    0.0000 O   0  0  0  0  0  0  0  0  0  0  0  0
   15.1767   -3.2330    0.0000 O   0  0  0  0  0  0  0  0  0  0  0  0
   12.5857   -4.7452    0.0000 O   0  0  0  0  0  0  0  0  0  0  0  0
    5.7308    2.6244    0.0000 O   0  0  0  0  0  0  0  0  0  0  0  0
   -0.7130    1.2950    0.0000 H   0  0  0  0  0  0  0  0  0  0  0  0
    1.2553   -2.5929    0.0000 C   0  0  0  0  0  0  0  0  0  0  0  0
    0.4992   -1.2974    0.0000 C   0  0  0  0  0  0  0  0  0  0  0  0
   -1.0008   -1.3045    0.0000 C   0  0  0  0  0  0  0  0  0  0  0  0
   -1.7447   -2.6070    0.0000 C   0  0  0  0  0  0  0  0  0  0  0  0
   -0.9886   -3.9025    0.0000 C   0  0  0  0  0  0  0  0  0  0  0  0
    0.5114   -3.8955    0.0000 C   0  0  0  0  0  0  0  0  0  0  0  0
    1.2675   -5.1910    0.0000 O   0  0  0  0  0  0  0  0  0  0  0  0
   -1.7324   -5.2051    0.0000 O   0  0  0  0  0  0  0  0  0  0  0  0
   -3.2446   -2.6141    0.0000 O   0  0  0  0  0  0  0  0  0  0  0  0
  1  2  2  0  0  0  0
  1  6  1  0  0  0  0
  2  3  1  0  0  0  0
  3  4  2  0  0  0  0
  4  5  1  0  0  0  0
  5  6  2  0  0  0  0
  5 11  1  0  0  0  0
  6  7  1  0  0  0  0
  7  8  2  0  0  0  0
  8  9  1  0  0  0  0
  9 10  2  0  0  0  0
  9 11  1  0  0  0  0
  1 12  1  0  0  0  0
 13 14  1  0  0  0  0
 14 15  1  0  0  0  0
 16 14  1  1  0  0  0
 14 19  1  0  0  0  0
 16 17  1  0  0  0  0
 16 18  1  0  0  0  0
 20 19  1  1  0  0  0
 20 21  1  0  0  0  0
 20 25  1  0  0  0  0
 21 22  1  0  0  0  0
 21 30  1  6  0  0  0
 22 23  1  0  0  0  0
 22 29  1  1  0  0  0
 23 24  1  0  0  0  0
 23 28  1  6  0  0  0
 24 25  1  0  0  0  0
 24 26  1  1  0  0  0
 26 27  1  0  0  0  0
  2 17  1  0  0  0  0
  3 18  1  0  0  0  0
  4 31  1  0  0  0  0
  8 32  1  0  0  0  0
 33 34  1  0  0  0  0
 33 38  2  0  0  0  0
 34 35  2  0  0  0  0
 35 36  1  0  0  0  0
 36 37  2  0  0  0  0
 36 41  1  0  0  0  0
 37 38  1  0  0  0  0
 37 40  1  0  0  0  0
 38 39  1  0  0  0  0
  7 34  1  0  0  0  0
M  END
> <score_Kier3>
0.511447

$$$$
suggested molecule #163
 MOE2019            2D

 41 45  0  0  1  0  0  0  0  0999 V2000
    3.4992   -1.2833    0.0000 C   0  0  0  0  0  0  0  0  0  1  0  0
    4.9992   -1.2762    0.0000 C   0  0  0  0  0  0  0  0  0  2  0  0
    5.7430    0.0263    0.0000 C   0  0  0  0  0  0  0  0  0  3  0  0
    4.9869    1.3218    0.0000 C   0  0  0  0  0  0  0  0  0  4  0  0
    3.4870    1.3147    0.0000 C   0  0  0  0  0  0  0  0  0  5  0  0
    2.7431    0.0122    0.0000 C   0  0  0  0  0  0  0  0  0  6  0  0
    1.2431    0.0051    0.0000 C   0  0  0  0  0  0  0  0  0  7  0  0
    0.4870    1.3006    0.0000 C   0  0  0  0  0  0  0  0  0  8  0  0
    1.2309    2.6032    0.0000 C   0  0  0  0  0  0  0  0  0  9  0  0
    0.4748    3.8987    0.0000 O   0  0  0  0  0  0  0  0  0 10  0  0
    2.7309    2.6102    0.0000 O   0  0  0  0  0  0  0  0  0 11  0  0
    2.9041   -2.3253    0.0000 H   0  0  0  0  0  0  0  0  0  0  0  0
    9.4220   -1.2110    0.0000 C   0  0  0  0  0  0  0  0  0  0  0  0
    8.6781   -2.5136    0.0000 C   0  0  0  0  0  0  0  0  0  0  0  0
    7.9342   -3.8161    0.0000 C   0  0  0  0  0  0  0  0  0  0  0  0
    7.3755   -1.7697    0.0000 C   0  0  1  0  0  0  0  0  0  0  0  0
    6.0081   -2.3862    0.0000 C   0  0  0  0  0  0  0  0  0  0  0  0
    7.2117   -0.2787    0.0000 O   0  0  0  0  0  0  0  0  0  0  0  0
    9.9806   -3.2575    0.0000 O   0  0  0  0  0  0  0  0  0  0  0  0
   11.2761   -2.5013    0.0000 C   0  0  1  0  0  0  0  0  0  0  0  0
   12.5787   -3.2452    0.0000 C   0  0  1  0  0  0  0  0  0  0  0  0
   13.8742   -2.4891    0.0000 C   0  0  2  0  0  0  0  0  0  0  0  0
   13.8671   -0.9891    0.0000 C   0  0  1  0  0  0  0  0  0  0  0  0
   12.5646   -0.2453    0.0000 C   0  0  2  0  0  0  0  0  0  0  0  0
   11.2691   -1.0014    0.0000 O   0  0  0  0  0  0  0  0  0  0  0  0
   12.5575    1.2547    0.0000 C   0  0  0  0  0  0  0  0  0  0  0  0
   13.8530    2.0108    0.0000 O   0  0  0  0  0  0  0  0  0  0  0  0
   15.1626   -0.2330    0.0000 O   0  0  0  0  0  0  0  0  0  0  0  0
   15.1767   -3.2330    0.0000 O   0  0  0  0  0  0  0  0  0  0  0  0
   12.5857   -4.7452    0.0000 O   0  0  0  0  0  0  0  0  0  0  0  0
    5.7308    2.6244    0.0000 O   0  0  0  0  0  0  0  0  0  0  0  0
   -0.7130    1.2950    0.0000 H   0  0  0  0  0  0  0  0  0  0  0  0
    1.2553   -2.5929    0.0000 C   0  0  0  0  0  0  0  0  0  0  0  0
    0.4992   -1.2974    0.0000 C   0  0  0  0  0  0  0  0  0  0  0  0
   -1.0008   -1.3045    0.0000 C   0  0  0  0  0  0  0  0  0  0  0  0
   -1.7447   -2.6070    0.0000 C   0  0  0  0  0  0  0  0  0  0  0  0
   -0.9886   -3.9025    0.0000 C   0  0  0  0  0  0  0  0  0  0  0  0
    0.5114   -3.8955    0.0000 C   0  0  0  0  0  0  0  0  0  0  0  0
    1.2675   -5.1910    0.0000 O   0  0  0  0  0  0  0  0  0  0  0  0
   -1.7324   -5.2051    0.0000 O   0  0  0  0  0  0  0  0  0  0  0  0
   -3.2446   -2.6141    0.0000 O   0  0  0  0  0  0  0  0  0  0  0  0
  1  2  2  0  0  0  0
  1  6  1  0  0  0  0
  2  3  1  0  0  0  0
  3  4  2  0  0  0  0
  4  5  1  0  0  0  0
  5  6  2  0  0  0  0
  5 11  1  0  0  0  0
  6  7  1  0  0  0  0
  7  8  2  0  0  0  0
  8  9  1  0  0  0  0
  9 10  2  0  0  0  0
  9 11  1  0  0  0  0
  1 12  1  0  0  0  0
 13 14  1  0  0  0  0
 14 15  1  0  0  0  0
 16 14  1  1  0  0  0
 14 19  1  0  0  0  0
 16 17  1  0  0  0  0
 16 18  1  0  0  0  0
 20 19  1  1  0  0  0
 20 21  1  0  0  0  0
 20 25  1  0  0  0  0
 21 22  1  0  0  0  0
 21 30  1  6  0  0  0
 22 23  1  0  0  0  0
 22 29  1  1  0  0  0
 23 24  1  0  0  0  0
 23 28  1  6  0  0  0
 24 25  1  0  0  0  0
 24 26  1  1  0  0  0
 26 27  1  0  0  0  0
  2 17  1  0  0  0  0
  3 18  1  0  0  0  0
  4 31  1  0  0  0  0
  8 32  1  0  0  0  0
 33 34  1  0  0  0  0
 33 38  2  0  0  0  0
 34 35  2  0  0  0  0
 35 36  1  0  0  0  0
 36 37  2  0  0  0  0
 36 41  1  0  0  0  0
 37 38  1  0  0  0  0
 37 40  1  0  0  0  0
 38 39  1  0  0  0  0
  7 34  1  0  0  0  0
M  END
> <score_KierFlex>
0.516255

$$$$
suggested molecule #164
 MOE2019            2D

 38 42  0  0  1  0  0  0  0  0999 V2000
    3.4992   -1.2833    0.0000 C   0  0  0  0  0  0  0  0  0  1  0  0
    4.9992   -1.2762    0.0000 C   0  0  0  0  0  0  0  0  0  2  0  0
    5.7430    0.0263    0.0000 C   0  0  0  0  0  0  0  0  0  3  0  0
    4.9869    1.3218    0.0000 C   0  0  0  0  0  0  0  0  0  4  0  0
    3.4870    1.3147    0.0000 C   0  0  0  0  0  0  0  0  0  5  0  0
    2.7431    0.0122    0.0000 C   0  0  0  0  0  0  0  0  0  6  0  0
    1.2431    0.0051    0.0000 C   0  0  0  0  0  0  0  0  0  7  0  0
    0.4870    1.3006    0.0000 C   0  0  0  0  0  0  0  0  0  8  0  0
    1.2309    2.6032    0.0000 C   0  0  0  0  0  0  0  0  0  9  0  0
    0.4748    3.8987    0.0000 O   0  0  0  0  0  0  0  0  0 10  0  0
    2.7309    2.6102    0.0000 O   0  0  0  0  0  0  0  0  0 11  0  0
    2.9041   -2.3253    0.0000 H   0  0  0  0  0  0  0  0  0  0  0  0
    9.4220   -1.2110    0.0000 C   0  0  0  0  0  0  0  0  0  0  0  0
    8.6781   -2.5136    0.0000 C   0  0  0  0  0  0  0  0  0  0  0  0
    7.9342   -3.8161    0.0000 C   0  0  0  0  0  0  0  0  0  0  0  0
    7.3755   -1.7697    0.0000 C   0  0  1  0  0  0  0  0  0  0  0  0
    6.0081   -2.3862    0.0000 C   0  0  0  0  0  0  0  0  0  0  0  0
    7.2117   -0.2787    0.0000 O   0  0  0  0  0  0  0  0  0  0  0  0
    9.9806   -3.2575    0.0000 O   0  0  0  0  0  0  0  0  0  0  0  0
   11.2761   -2.5013    0.0000 C   0  0  1  0  0  0  0  0  0  0  0  0
   12.5787   -3.2452    0.0000 C   0  0  1  0  0  0  0  0  0  0  0  0
   13.8742   -2.4891    0.0000 C   0  0  2  0  0  0  0  0  0  0  0  0
   13.8671   -0.9891    0.0000 C   0  0  1  0  0  0  0  0  0  0  0  0
   12.5646   -0.2453    0.0000 C   0  0  2  0  0  0  0  0  0  0  0  0
   11.2691   -1.0014    0.0000 O   0  0  0  0  0  0  0  0  0  0  0  0
   12.5575    1.2547    0.0000 C   0  0  0  0  0  0  0  0  0  0  0  0
   13.8530    2.0108    0.0000 O   0  0  0  0  0  0  0  0  0  0  0  0
   15.1626   -0.2330    0.0000 O   0  0  0  0  0  0  0  0  0  0  0  0
   15.1767   -3.2330    0.0000 O   0  0  0  0  0  0  0  0  0  0  0  0
   12.5857   -4.7452    0.0000 O   0  0  0  0  0  0  0  0  0  0  0  0
    5.7308    2.6244    0.0000 O   0  0  0  0  0  0  0  0  0  0  0  0
   -0.7130    1.2950    0.0000 H   0  0  0  0  0  0  0  0  0  0  0  0
    0.4992   -1.2974    0.0000 C   0  0  0  0  0  0  0  0  0  0  0  0
   -1.0008   -1.3045    0.0000 C   0  0  0  0  0  0  0  0  0  0  0  0
   -1.7447   -2.6070    0.0000 C   0  0  0  0  0  0  0  0  0  0  0  0
   -0.9886   -3.9025    0.0000 C   0  0  0  0  0  0  0  0  0  0  0  0
    0.5114   -3.8955    0.0000 C   0  0  0  0  0  0  0  0  0  0  0  0
    1.2553   -2.5929    0.0000 C   0  0  0  0  0  0  0  0  0  0  0  0
  1  2  2  0  0  0  0
  1  6  1  0  0  0  0
  2  3  1  0  0  0  0
  3  4  2  0  0  0  0
  4  5  1  0  0  0  0
  5  6  2  0  0  0  0
  5 11  1  0  0  0  0
  6  7  1  0  0  0  0
  7  8  2  0  0  0  0
  8  9  1  0  0  0  0
  9 10  2  0  0  0  0
  9 11  1  0  0  0  0
  1 12  1  0  0  0  0
 13 14  1  0  0  0  0
 14 15  1  0  0  0  0
 16 14  1  1  0  0  0
 14 19  1  0  0  0  0
 16 17  1  0  0  0  0
 16 18  1  0  0  0  0
 20 19  1  1  0  0  0
 20 21  1  0  0  0  0
 20 25  1  0  0  0  0
 21 22  1  0  0  0  0
 21 30  1  6  0  0  0
 22 23  1  0  0  0  0
 22 29  1  1  0  0  0
 23 24  1  0  0  0  0
 23 28  1  6  0  0  0
 24 25  1  0  0  0  0
 24 26  1  1  0  0  0
 26 27  1  0  0  0  0
  2 17  1  0  0  0  0
  3 18  1  0  0  0  0
  4 31  1  0  0  0  0
  8 32  1  0  0  0  0
 33 34  1  0  0  0  0
 33 38  2  0  0  0  0
 34 35  2  0  0  0  0
 35 36  1  0  0  0  0
 36 37  2  0  0  0  0
 37 38  1  0  0  0  0
  7 33  1  0  0  0  0
M  END
> <score_Kier1>
0.518008

$$$$
suggested molecule #165
 MOE2019            2D

 38 42  0  0  1  0  0  0  0  0999 V2000
    3.4992   -1.2833    0.0000 C   0  0  0  0  0  0  0  0  0  1  0  0
    4.9992   -1.2762    0.0000 C   0  0  0  0  0  0  0  0  0  2  0  0
    5.7430    0.0263    0.0000 C   0  0  0  0  0  0  0  0  0  3  0  0
    4.9869    1.3218    0.0000 C   0  0  0  0  0  0  0  0  0  4  0  0
    3.4870    1.3147    0.0000 C   0  0  0  0  0  0  0  0  0  5  0  0
    2.7431    0.0122    0.0000 C   0  0  0  0  0  0  0  0  0  6  0  0
    1.2431    0.0051    0.0000 C   0  0  0  0  0  0  0  0  0  7  0  0
    0.4870    1.3006    0.0000 C   0  0  0  0  0  0  0  0  0  8  0  0
    1.2309    2.6032    0.0000 C   0  0  0  0  0  0  0  0  0  9  0  0
    0.4748    3.8987    0.0000 O   0  0  0  0  0  0  0  0  0 10  0  0
    2.7309    2.6102    0.0000 O   0  0  0  0  0  0  0  0  0 11  0  0
    2.9041   -2.3253    0.0000 H   0  0  0  0  0  0  0  0  0  0  0  0
    9.4220   -1.2110    0.0000 C   0  0  0  0  0  0  0  0  0  0  0  0
    8.6781   -2.5136    0.0000 C   0  0  0  0  0  0  0  0  0  0  0  0
    7.9342   -3.8161    0.0000 C   0  0  0  0  0  0  0  0  0  0  0  0
    7.3755   -1.7697    0.0000 C   0  0  1  0  0  0  0  0  0  0  0  0
    6.0081   -2.3862    0.0000 C   0  0  0  0  0  0  0  0  0  0  0  0
    7.2117   -0.2787    0.0000 O   0  0  0  0  0  0  0  0  0  0  0  0
    9.9806   -3.2575    0.0000 O   0  0  0  0  0  0  0  0  0  0  0  0
   11.2761   -2.5013    0.0000 C   0  0  1  0  0  0  0  0  0  0  0  0
   12.5787   -3.2452    0.0000 C   0  0  1  0  0  0  0  0  0  0  0  0
   13.8742   -2.4891    0.0000 C   0  0  2  0  0  0  0  0  0  0  0  0
   13.8671   -0.9891    0.0000 C   0  0  1  0  0  0  0  0  0  0  0  0
   12.5646   -0.2453    0.0000 C   0  0  2  0  0  0  0  0  0  0  0  0
   11.2691   -1.0014    0.0000 O   0  0  0  0  0  0  0  0  0  0  0  0
   12.5575    1.2547    0.0000 C   0  0  0  0  0  0  0  0  0  0  0  0
   13.8530    2.0108    0.0000 O   0  0  0  0  0  0  0  0  0  0  0  0
   15.1626   -0.2330    0.0000 O   0  0  0  0  0  0  0  0  0  0  0  0
   15.1767   -3.2330    0.0000 O   0  0  0  0  0  0  0  0  0  0  0  0
   12.5857   -4.7452    0.0000 O   0  0  0  0  0  0  0  0  0  0  0  0
    5.7308    2.6244    0.0000 O   0  0  0  0  0  0  0  0  0  0  0  0
   -0.7130    1.2950    0.0000 H   0  0  0  0  0  0  0  0  0  0  0  0
    0.4992   -1.2974    0.0000 C   0  0  0  0  0  0  0  0  0  0  0  0
   -1.0008   -1.3045    0.0000 C   0  0  0  0  0  0  0  0  0  0  0  0
   -1.7447   -2.6070    0.0000 C   0  0  0  0  0  0  0  0  0  0  0  0
   -0.9886   -3.9025    0.0000 C   0  0  0  0  0  0  0  0  0  0  0  0
    0.5114   -3.8955    0.0000 C   0  0  0  0  0  0  0  0  0  0  0  0
    1.2553   -2.5929    0.0000 C   0  0  0  0  0  0  0  0  0  0  0  0
  1  2  2  0  0  0  0
  1  6  1  0  0  0  0
  2  3  1  0  0  0  0
  3  4  2  0  0  0  0
  4  5  1  0  0  0  0
  5  6  2  0  0  0  0
  5 11  1  0  0  0  0
  6  7  1  0  0  0  0
  7  8  2  0  0  0  0
  8  9  1  0  0  0  0
  9 10  2  0  0  0  0
  9 11  1  0  0  0  0
  1 12  1  0  0  0  0
 13 14  1  0  0  0  0
 14 15  1  0  0  0  0
 16 14  1  1  0  0  0
 14 19  1  0  0  0  0
 16 17  1  0  0  0  0
 16 18  1  0  0  0  0
 20 19  1  1  0  0  0
 20 21  1  0  0  0  0
 20 25  1  0  0  0  0
 21 22  1  0  0  0  0
 21 30  1  6  0  0  0
 22 23  1  0  0  0  0
 22 29  1  1  0  0  0
 23 24  1  0  0  0  0
 23 28  1  6  0  0  0
 24 25  1  0  0  0  0
 24 26  1  1  0  0  0
 26 27  1  0  0  0  0
  2 17  1  0  0  0  0
  3 18  1  0  0  0  0
  4 31  1  0  0  0  0
  8 32  1  0  0  0  0
 33 34  1  0  0  0  0
 33 38  2  0  0  0  0
 34 35  2  0  0  0  0
 35 36  1  0  0  0  0
 36 37  2  0  0  0  0
 37 38  1  0  0  0  0
  7 33  1  0  0  0  0
M  END
> <score_Kier2>
0.516587

$$$$
suggested molecule #166
 MOE2019            2D

 38 42  0  0  1  0  0  0  0  0999 V2000
    3.4992   -1.2833    0.0000 C   0  0  0  0  0  0  0  0  0  1  0  0
    4.9992   -1.2762    0.0000 C   0  0  0  0  0  0  0  0  0  2  0  0
    5.7430    0.0263    0.0000 C   0  0  0  0  0  0  0  0  0  3  0  0
    4.9869    1.3218    0.0000 C   0  0  0  0  0  0  0  0  0  4  0  0
    3.4870    1.3147    0.0000 C   0  0  0  0  0  0  0  0  0  5  0  0
    2.7431    0.0122    0.0000 C   0  0  0  0  0  0  0  0  0  6  0  0
    1.2431    0.0051    0.0000 C   0  0  0  0  0  0  0  0  0  7  0  0
    0.4870    1.3006    0.0000 C   0  0  0  0  0  0  0  0  0  8  0  0
    1.2309    2.6032    0.0000 C   0  0  0  0  0  0  0  0  0  9  0  0
    0.4748    3.8987    0.0000 O   0  0  0  0  0  0  0  0  0 10  0  0
    2.7309    2.6102    0.0000 O   0  0  0  0  0  0  0  0  0 11  0  0
    2.9041   -2.3253    0.0000 H   0  0  0  0  0  0  0  0  0  0  0  0
    9.4220   -1.2110    0.0000 C   0  0  0  0  0  0  0  0  0  0  0  0
    8.6781   -2.5136    0.0000 C   0  0  0  0  0  0  0  0  0  0  0  0
    7.9342   -3.8161    0.0000 C   0  0  0  0  0  0  0  0  0  0  0  0
    7.3755   -1.7697    0.0000 C   0  0  1  0  0  0  0  0  0  0  0  0
    6.0081   -2.3862    0.0000 C   0  0  0  0  0  0  0  0  0  0  0  0
    7.2117   -0.2787    0.0000 O   0  0  0  0  0  0  0  0  0  0  0  0
    9.9806   -3.2575    0.0000 O   0  0  0  0  0  0  0  0  0  0  0  0
   11.2761   -2.5013    0.0000 C   0  0  1  0  0  0  0  0  0  0  0  0
   12.5787   -3.2452    0.0000 C   0  0  1  0  0  0  0  0  0  0  0  0
   13.8742   -2.4891    0.0000 C   0  0  2  0  0  0  0  0  0  0  0  0
   13.8671   -0.9891    0.0000 C   0  0  1  0  0  0  0  0  0  0  0  0
   12.5646   -0.2453    0.0000 C   0  0  2  0  0  0  0  0  0  0  0  0
   11.2691   -1.0014    0.0000 O   0  0  0  0  0  0  0  0  0  0  0  0
   12.5575    1.2547    0.0000 C   0  0  0  0  0  0  0  0  0  0  0  0
   13.8530    2.0108    0.0000 O   0  0  0  0  0  0  0  0  0  0  0  0
   15.1626   -0.2330    0.0000 O   0  0  0  0  0  0  0  0  0  0  0  0
   15.1767   -3.2330    0.0000 O   0  0  0  0  0  0  0  0  0  0  0  0
   12.5857   -4.7452    0.0000 O   0  0  0  0  0  0  0  0  0  0  0  0
    5.7308    2.6244    0.0000 O   0  0  0  0  0  0  0  0  0  0  0  0
   -0.7130    1.2950    0.0000 H   0  0  0  0  0  0  0  0  0  0  0  0
    0.4992   -1.2974    0.0000 C   0  0  0  0  0  0  0  0  0  0  0  0
   -1.0008   -1.3045    0.0000 C   0  0  0  0  0  0  0  0  0  0  0  0
   -1.7447   -2.6070    0.0000 C   0  0  0  0  0  0  0  0  0  0  0  0
   -0.9886   -3.9025    0.0000 C   0  0  0  0  0  0  0  0  0  0  0  0
    0.5114   -3.8955    0.0000 C   0  0  0  0  0  0  0  0  0  0  0  0
    1.2553   -2.5929    0.0000 C   0  0  0  0  0  0  0  0  0  0  0  0
  1  2  2  0  0  0  0
  1  6  1  0  0  0  0
  2  3  1  0  0  0  0
  3  4  2  0  0  0  0
  4  5  1  0  0  0  0
  5  6  2  0  0  0  0
  5 11  1  0  0  0  0
  6  7  1  0  0  0  0
  7  8  2  0  0  0  0
  8  9  1  0  0  0  0
  9 10  2  0  0  0  0
  9 11  1  0  0  0  0
  1 12  1  0  0  0  0
 13 14  1  0  0  0  0
 14 15  1  0  0  0  0
 16 14  1  1  0  0  0
 14 19  1  0  0  0  0
 16 17  1  0  0  0  0
 16 18  1  0  0  0  0
 20 19  1  1  0  0  0
 20 21  1  0  0  0  0
 20 25  1  0  0  0  0
 21 22  1  0  0  0  0
 21 30  1  6  0  0  0
 22 23  1  0  0  0  0
 22 29  1  1  0  0  0
 23 24  1  0  0  0  0
 23 28  1  6  0  0  0
 24 25  1  0  0  0  0
 24 26  1  1  0  0  0
 26 27  1  0  0  0  0
  2 17  1  0  0  0  0
  3 18  1  0  0  0  0
  4 31  1  0  0  0  0
  8 32  1  0  0  0  0
 33 34  1  0  0  0  0
 33 38  2  0  0  0  0
 34 35  2  0  0  0  0
 35 36  1  0  0  0  0
 36 37  2  0  0  0  0
 37 38  1  0  0  0  0
  7 33  1  0  0  0  0
M  END
> <score_Kier3>
0.511973

$$$$
suggested molecule #167
 MOE2019            2D

 38 42  0  0  1  0  0  0  0  0999 V2000
    3.4992   -1.2833    0.0000 C   0  0  0  0  0  0  0  0  0  1  0  0
    4.9992   -1.2762    0.0000 C   0  0  0  0  0  0  0  0  0  2  0  0
    5.7430    0.0263    0.0000 C   0  0  0  0  0  0  0  0  0  3  0  0
    4.9869    1.3218    0.0000 C   0  0  0  0  0  0  0  0  0  4  0  0
    3.4870    1.3147    0.0000 C   0  0  0  0  0  0  0  0  0  5  0  0
    2.7431    0.0122    0.0000 C   0  0  0  0  0  0  0  0  0  6  0  0
    1.2431    0.0051    0.0000 C   0  0  0  0  0  0  0  0  0  7  0  0
    0.4870    1.3006    0.0000 C   0  0  0  0  0  0  0  0  0  8  0  0
    1.2309    2.6032    0.0000 C   0  0  0  0  0  0  0  0  0  9  0  0
    0.4748    3.8987    0.0000 O   0  0  0  0  0  0  0  0  0 10  0  0
    2.7309    2.6102    0.0000 O   0  0  0  0  0  0  0  0  0 11  0  0
    2.9041   -2.3253    0.0000 H   0  0  0  0  0  0  0  0  0  0  0  0
    9.4220   -1.2110    0.0000 C   0  0  0  0  0  0  0  0  0  0  0  0
    8.6781   -2.5136    0.0000 C   0  0  0  0  0  0  0  0  0  0  0  0
    7.9342   -3.8161    0.0000 C   0  0  0  0  0  0  0  0  0  0  0  0
    7.3755   -1.7697    0.0000 C   0  0  1  0  0  0  0  0  0  0  0  0
    6.0081   -2.3862    0.0000 C   0  0  0  0  0  0  0  0  0  0  0  0
    7.2117   -0.2787    0.0000 O   0  0  0  0  0  0  0  0  0  0  0  0
    9.9806   -3.2575    0.0000 O   0  0  0  0  0  0  0  0  0  0  0  0
   11.2761   -2.5013    0.0000 C   0  0  1  0  0  0  0  0  0  0  0  0
   12.5787   -3.2452    0.0000 C   0  0  1  0  0  0  0  0  0  0  0  0
   13.8742   -2.4891    0.0000 C   0  0  2  0  0  0  0  0  0  0  0  0
   13.8671   -0.9891    0.0000 C   0  0  1  0  0  0  0  0  0  0  0  0
   12.5646   -0.2453    0.0000 C   0  0  2  0  0  0  0  0  0  0  0  0
   11.2691   -1.0014    0.0000 O   0  0  0  0  0  0  0  0  0  0  0  0
   12.5575    1.2547    0.0000 C   0  0  0  0  0  0  0  0  0  0  0  0
   13.8530    2.0108    0.0000 O   0  0  0  0  0  0  0  0  0  0  0  0
   15.1626   -0.2330    0.0000 O   0  0  0  0  0  0  0  0  0  0  0  0
   15.1767   -3.2330    0.0000 O   0  0  0  0  0  0  0  0  0  0  0  0
   12.5857   -4.7452    0.0000 O   0  0  0  0  0  0  0  0  0  0  0  0
    5.7308    2.6244    0.0000 O   0  0  0  0  0  0  0  0  0  0  0  0
   -0.7130    1.2950    0.0000 H   0  0  0  0  0  0  0  0  0  0  0  0
    0.4992   -1.2974    0.0000 C   0  0  0  0  0  0  0  0  0  0  0  0
   -1.0008   -1.3045    0.0000 C   0  0  0  0  0  0  0  0  0  0  0  0
   -1.7447   -2.6070    0.0000 C   0  0  0  0  0  0  0  0  0  0  0  0
   -0.9886   -3.9025    0.0000 C   0  0  0  0  0  0  0  0  0  0  0  0
    0.5114   -3.8955    0.0000 C   0  0  0  0  0  0  0  0  0  0  0  0
    1.2553   -2.5929    0.0000 C   0  0  0  0  0  0  0  0  0  0  0  0
  1  2  2  0  0  0  0
  1  6  1  0  0  0  0
  2  3  1  0  0  0  0
  3  4  2  0  0  0  0
  4  5  1  0  0  0  0
  5  6  2  0  0  0  0
  5 11  1  0  0  0  0
  6  7  1  0  0  0  0
  7  8  2  0  0  0  0
  8  9  1  0  0  0  0
  9 10  2  0  0  0  0
  9 11  1  0  0  0  0
  1 12  1  0  0  0  0
 13 14  1  0  0  0  0
 14 15  1  0  0  0  0
 16 14  1  1  0  0  0
 14 19  1  0  0  0  0
 16 17  1  0  0  0  0
 16 18  1  0  0  0  0
 20 19  1  1  0  0  0
 20 21  1  0  0  0  0
 20 25  1  0  0  0  0
 21 22  1  0  0  0  0
 21 30  1  6  0  0  0
 22 23  1  0  0  0  0
 22 29  1  1  0  0  0
 23 24  1  0  0  0  0
 23 28  1  6  0  0  0
 24 25  1  0  0  0  0
 24 26  1  1  0  0  0
 26 27  1  0  0  0  0
  2 17  1  0  0  0  0
  3 18  1  0  0  0  0
  4 31  1  0  0  0  0
  8 32  1  0  0  0  0
 33 34  1  0  0  0  0
 33 38  2  0  0  0  0
 34 35  2  0  0  0  0
 35 36  1  0  0  0  0
 36 37  2  0  0  0  0
 37 38  1  0  0  0  0
  7 33  1  0  0  0  0
M  END
> <score_KierA1>
0.518221

$$$$
suggested molecule #168
 MOE2019            2D

 38 42  0  0  1  0  0  0  0  0999 V2000
    3.4992   -1.2833    0.0000 C   0  0  0  0  0  0  0  0  0  1  0  0
    4.9992   -1.2762    0.0000 C   0  0  0  0  0  0  0  0  0  2  0  0
    5.7430    0.0263    0.0000 C   0  0  0  0  0  0  0  0  0  3  0  0
    4.9869    1.3218    0.0000 C   0  0  0  0  0  0  0  0  0  4  0  0
    3.4870    1.3147    0.0000 C   0  0  0  0  0  0  0  0  0  5  0  0
    2.7431    0.0122    0.0000 C   0  0  0  0  0  0  0  0  0  6  0  0
    1.2431    0.0051    0.0000 C   0  0  0  0  0  0  0  0  0  7  0  0
    0.4870    1.3006    0.0000 C   0  0  0  0  0  0  0  0  0  8  0  0
    1.2309    2.6032    0.0000 C   0  0  0  0  0  0  0  0  0  9  0  0
    0.4748    3.8987    0.0000 O   0  0  0  0  0  0  0  0  0 10  0  0
    2.7309    2.6102    0.0000 O   0  0  0  0  0  0  0  0  0 11  0  0
    2.9041   -2.3253    0.0000 H   0  0  0  0  0  0  0  0  0  0  0  0
    9.4220   -1.2110    0.0000 C   0  0  0  0  0  0  0  0  0  0  0  0
    8.6781   -2.5136    0.0000 C   0  0  0  0  0  0  0  0  0  0  0  0
    7.9342   -3.8161    0.0000 C   0  0  0  0  0  0  0  0  0  0  0  0
    7.3755   -1.7697    0.0000 C   0  0  1  0  0  0  0  0  0  0  0  0
    6.0081   -2.3862    0.0000 C   0  0  0  0  0  0  0  0  0  0  0  0
    7.2117   -0.2787    0.0000 O   0  0  0  0  0  0  0  0  0  0  0  0
    9.9806   -3.2575    0.0000 O   0  0  0  0  0  0  0  0  0  0  0  0
   11.2761   -2.5013    0.0000 C   0  0  1  0  0  0  0  0  0  0  0  0
   12.5787   -3.2452    0.0000 C   0  0  1  0  0  0  0  0  0  0  0  0
   13.8742   -2.4891    0.0000 C   0  0  2  0  0  0  0  0  0  0  0  0
   13.8671   -0.9891    0.0000 C   0  0  1  0  0  0  0  0  0  0  0  0
   12.5646   -0.2453    0.0000 C   0  0  2  0  0  0  0  0  0  0  0  0
   11.2691   -1.0014    0.0000 O   0  0  0  0  0  0  0  0  0  0  0  0
   12.5575    1.2547    0.0000 C   0  0  0  0  0  0  0  0  0  0  0  0
   13.8530    2.0108    0.0000 O   0  0  0  0  0  0  0  0  0  0  0  0
   15.1626   -0.2330    0.0000 O   0  0  0  0  0  0  0  0  0  0  0  0
   15.1767   -3.2330    0.0000 O   0  0  0  0  0  0  0  0  0  0  0  0
   12.5857   -4.7452    0.0000 O   0  0  0  0  0  0  0  0  0  0  0  0
    5.7308    2.6244    0.0000 O   0  0  0  0  0  0  0  0  0  0  0  0
   -0.7130    1.2950    0.0000 H   0  0  0  0  0  0  0  0  0  0  0  0
    0.4992   -1.2974    0.0000 C   0  0  0  0  0  0  0  0  0  0  0  0
   -1.0008   -1.3045    0.0000 C   0  0  0  0  0  0  0  0  0  0  0  0
   -1.7447   -2.6070    0.0000 C   0  0  0  0  0  0  0  0  0  0  0  0
   -0.9886   -3.9025    0.0000 C   0  0  0  0  0  0  0  0  0  0  0  0
    0.5114   -3.8955    0.0000 C   0  0  0  0  0  0  0  0  0  0  0  0
    1.2553   -2.5929    0.0000 C   0  0  0  0  0  0  0  0  0  0  0  0
  1  2  2  0  0  0  0
  1  6  1  0  0  0  0
  2  3  1  0  0  0  0
  3  4  2  0  0  0  0
  4  5  1  0  0  0  0
  5  6  2  0  0  0  0
  5 11  1  0  0  0  0
  6  7  1  0  0  0  0
  7  8  2  0  0  0  0
  8  9  1  0  0  0  0
  9 10  2  0  0  0  0
  9 11  1  0  0  0  0
  1 12  1  0  0  0  0
 13 14  1  0  0  0  0
 14 15  1  0  0  0  0
 16 14  1  1  0  0  0
 14 19  1  0  0  0  0
 16 17  1  0  0  0  0
 16 18  1  0  0  0  0
 20 19  1  1  0  0  0
 20 21  1  0  0  0  0
 20 25  1  0  0  0  0
 21 22  1  0  0  0  0
 21 30  1  6  0  0  0
 22 23  1  0  0  0  0
 22 29  1  1  0  0  0
 23 24  1  0  0  0  0
 23 28  1  6  0  0  0
 24 25  1  0  0  0  0
 24 26  1  1  0  0  0
 26 27  1  0  0  0  0
  2 17  1  0  0  0  0
  3 18  1  0  0  0  0
  4 31  1  0  0  0  0
  8 32  1  0  0  0  0
 33 34  1  0  0  0  0
 33 38  2  0  0  0  0
 34 35  2  0  0  0  0
 35 36  1  0  0  0  0
 36 37  2  0  0  0  0
 37 38  1  0  0  0  0
  7 33  1  0  0  0  0
M  END
> <score_KierA2>
0.517149

$$$$
suggested molecule #169
 MOE2019            2D

 38 42  0  0  1  0  0  0  0  0999 V2000
    3.4992   -1.2833    0.0000 C   0  0  0  0  0  0  0  0  0  1  0  0
    4.9992   -1.2762    0.0000 C   0  0  0  0  0  0  0  0  0  2  0  0
    5.7430    0.0263    0.0000 C   0  0  0  0  0  0  0  0  0  3  0  0
    4.9869    1.3218    0.0000 C   0  0  0  0  0  0  0  0  0  4  0  0
    3.4870    1.3147    0.0000 C   0  0  0  0  0  0  0  0  0  5  0  0
    2.7431    0.0122    0.0000 C   0  0  0  0  0  0  0  0  0  6  0  0
    1.2431    0.0051    0.0000 C   0  0  0  0  0  0  0  0  0  7  0  0
    0.4870    1.3006    0.0000 C   0  0  0  0  0  0  0  0  0  8  0  0
    1.2309    2.6032    0.0000 C   0  0  0  0  0  0  0  0  0  9  0  0
    0.4748    3.8987    0.0000 O   0  0  0  0  0  0  0  0  0 10  0  0
    2.7309    2.6102    0.0000 O   0  0  0  0  0  0  0  0  0 11  0  0
    2.9041   -2.3253    0.0000 H   0  0  0  0  0  0  0  0  0  0  0  0
    9.4220   -1.2110    0.0000 C   0  0  0  0  0  0  0  0  0  0  0  0
    8.6781   -2.5136    0.0000 C   0  0  0  0  0  0  0  0  0  0  0  0
    7.9342   -3.8161    0.0000 C   0  0  0  0  0  0  0  0  0  0  0  0
    7.3755   -1.7697    0.0000 C   0  0  1  0  0  0  0  0  0  0  0  0
    6.0081   -2.3862    0.0000 C   0  0  0  0  0  0  0  0  0  0  0  0
    7.2117   -0.2787    0.0000 O   0  0  0  0  0  0  0  0  0  0  0  0
    9.9806   -3.2575    0.0000 O   0  0  0  0  0  0  0  0  0  0  0  0
   11.2761   -2.5013    0.0000 C   0  0  1  0  0  0  0  0  0  0  0  0
   12.5787   -3.2452    0.0000 C   0  0  1  0  0  0  0  0  0  0  0  0
   13.8742   -2.4891    0.0000 C   0  0  2  0  0  0  0  0  0  0  0  0
   13.8671   -0.9891    0.0000 C   0  0  1  0  0  0  0  0  0  0  0  0
   12.5646   -0.2453    0.0000 C   0  0  2  0  0  0  0  0  0  0  0  0
   11.2691   -1.0014    0.0000 O   0  0  0  0  0  0  0  0  0  0  0  0
   12.5575    1.2547    0.0000 C   0  0  0  0  0  0  0  0  0  0  0  0
   13.8530    2.0108    0.0000 O   0  0  0  0  0  0  0  0  0  0  0  0
   15.1626   -0.2330    0.0000 O   0  0  0  0  0  0  0  0  0  0  0  0
   15.1767   -3.2330    0.0000 O   0  0  0  0  0  0  0  0  0  0  0  0
   12.5857   -4.7452    0.0000 O   0  0  0  0  0  0  0  0  0  0  0  0
    5.7308    2.6244    0.0000 O   0  0  0  0  0  0  0  0  0  0  0  0
   -0.7130    1.2950    0.0000 H   0  0  0  0  0  0  0  0  0  0  0  0
    0.4992   -1.2974    0.0000 C   0  0  0  0  0  0  0  0  0  0  0  0
   -1.0008   -1.3045    0.0000 C   0  0  0  0  0  0  0  0  0  0  0  0
   -1.7447   -2.6070    0.0000 C   0  0  0  0  0  0  0  0  0  0  0  0
   -0.9886   -3.9025    0.0000 C   0  0  0  0  0  0  0  0  0  0  0  0
    0.5114   -3.8955    0.0000 C   0  0  0  0  0  0  0  0  0  0  0  0
    1.2553   -2.5929    0.0000 C   0  0  0  0  0  0  0  0  0  0  0  0
  1  2  2  0  0  0  0
  1  6  1  0  0  0  0
  2  3  1  0  0  0  0
  3  4  2  0  0  0  0
  4  5  1  0  0  0  0
  5  6  2  0  0  0  0
  5 11  1  0  0  0  0
  6  7  1  0  0  0  0
  7  8  2  0  0  0  0
  8  9  1  0  0  0  0
  9 10  2  0  0  0  0
  9 11  1  0  0  0  0
  1 12  1  0  0  0  0
 13 14  1  0  0  0  0
 14 15  1  0  0  0  0
 16 14  1  1  0  0  0
 14 19  1  0  0  0  0
 16 17  1  0  0  0  0
 16 18  1  0  0  0  0
 20 19  1  1  0  0  0
 20 21  1  0  0  0  0
 20 25  1  0  0  0  0
 21 22  1  0  0  0  0
 21 30  1  6  0  0  0
 22 23  1  0  0  0  0
 22 29  1  1  0  0  0
 23 24  1  0  0  0  0
 23 28  1  6  0  0  0
 24 25  1  0  0  0  0
 24 26  1  1  0  0  0
 26 27  1  0  0  0  0
  2 17  1  0  0  0  0
  3 18  1  0  0  0  0
  4 31  1  0  0  0  0
  8 32  1  0  0  0  0
 33 34  1  0  0  0  0
 33 38  2  0  0  0  0
 34 35  2  0  0  0  0
 35 36  1  0  0  0  0
 36 37  2  0  0  0  0
 37 38  1  0  0  0  0
  7 33  1  0  0  0  0
M  END
> <score_KierA3>
0.512853

$$$$
suggested molecule #170
 MOE2019            2D

 38 42  0  0  1  0  0  0  0  0999 V2000
    3.4992   -1.2833    0.0000 C   0  0  0  0  0  0  0  0  0  1  0  0
    4.9992   -1.2762    0.0000 C   0  0  0  0  0  0  0  0  0  2  0  0
    5.7430    0.0263    0.0000 C   0  0  0  0  0  0  0  0  0  3  0  0
    4.9869    1.3218    0.0000 C   0  0  0  0  0  0  0  0  0  4  0  0
    3.4870    1.3147    0.0000 C   0  0  0  0  0  0  0  0  0  5  0  0
    2.7431    0.0122    0.0000 C   0  0  0  0  0  0  0  0  0  6  0  0
    1.2431    0.0051    0.0000 C   0  0  0  0  0  0  0  0  0  7  0  0
    0.4870    1.3006    0.0000 C   0  0  0  0  0  0  0  0  0  8  0  0
    1.2309    2.6032    0.0000 C   0  0  0  0  0  0  0  0  0  9  0  0
    0.4748    3.8987    0.0000 O   0  0  0  0  0  0  0  0  0 10  0  0
    2.7309    2.6102    0.0000 O   0  0  0  0  0  0  0  0  0 11  0  0
    2.9041   -2.3253    0.0000 H   0  0  0  0  0  0  0  0  0  0  0  0
    9.4220   -1.2110    0.0000 C   0  0  0  0  0  0  0  0  0  0  0  0
    8.6781   -2.5136    0.0000 C   0  0  0  0  0  0  0  0  0  0  0  0
    7.9342   -3.8161    0.0000 C   0  0  0  0  0  0  0  0  0  0  0  0
    7.3755   -1.7697    0.0000 C   0  0  1  0  0  0  0  0  0  0  0  0
    6.0081   -2.3862    0.0000 C   0  0  0  0  0  0  0  0  0  0  0  0
    7.2117   -0.2787    0.0000 O   0  0  0  0  0  0  0  0  0  0  0  0
    9.9806   -3.2575    0.0000 O   0  0  0  0  0  0  0  0  0  0  0  0
   11.2761   -2.5013    0.0000 C   0  0  1  0  0  0  0  0  0  0  0  0
   12.5787   -3.2452    0.0000 C   0  0  1  0  0  0  0  0  0  0  0  0
   13.8742   -2.4891    0.0000 C   0  0  2  0  0  0  0  0  0  0  0  0
   13.8671   -0.9891    0.0000 C   0  0  1  0  0  0  0  0  0  0  0  0
   12.5646   -0.2453    0.0000 C   0  0  2  0  0  0  0  0  0  0  0  0
   11.2691   -1.0014    0.0000 O   0  0  0  0  0  0  0  0  0  0  0  0
   12.5575    1.2547    0.0000 C   0  0  0  0  0  0  0  0  0  0  0  0
   13.8530    2.0108    0.0000 O   0  0  0  0  0  0  0  0  0  0  0  0
   15.1626   -0.2330    0.0000 O   0  0  0  0  0  0  0  0  0  0  0  0
   15.1767   -3.2330    0.0000 O   0  0  0  0  0  0  0  0  0  0  0  0
   12.5857   -4.7452    0.0000 O   0  0  0  0  0  0  0  0  0  0  0  0
    5.7308    2.6244    0.0000 O   0  0  0  0  0  0  0  0  0  0  0  0
   -0.7130    1.2950    0.0000 H   0  0  0  0  0  0  0  0  0  0  0  0
    0.4992   -1.2974    0.0000 C   0  0  0  0  0  0  0  0  0  0  0  0
   -1.0008   -1.3045    0.0000 C   0  0  0  0  0  0  0  0  0  0  0  0
   -1.7447   -2.6070    0.0000 C   0  0  0  0  0  0  0  0  0  0  0  0
   -0.9886   -3.9025    0.0000 C   0  0  0  0  0  0  0  0  0  0  0  0
    0.5114   -3.8955    0.0000 C   0  0  0  0  0  0  0  0  0  0  0  0
    1.2553   -2.5929    0.0000 C   0  0  0  0  0  0  0  0  0  0  0  0
  1  2  2  0  0  0  0
  1  6  1  0  0  0  0
  2  3  1  0  0  0  0
  3  4  2  0  0  0  0
  4  5  1  0  0  0  0
  5  6  2  0  0  0  0
  5 11  1  0  0  0  0
  6  7  1  0  0  0  0
  7  8  2  0  0  0  0
  8  9  1  0  0  0  0
  9 10  2  0  0  0  0
  9 11  1  0  0  0  0
  1 12  1  0  0  0  0
 13 14  1  0  0  0  0
 14 15  1  0  0  0  0
 16 14  1  1  0  0  0
 14 19  1  0  0  0  0
 16 17  1  0  0  0  0
 16 18  1  0  0  0  0
 20 19  1  1  0  0  0
 20 21  1  0  0  0  0
 20 25  1  0  0  0  0
 21 22  1  0  0  0  0
 21 30  1  6  0  0  0
 22 23  1  0  0  0  0
 22 29  1  1  0  0  0
 23 24  1  0  0  0  0
 23 28  1  6  0  0  0
 24 25  1  0  0  0  0
 24 26  1  1  0  0  0
 26 27  1  0  0  0  0
  2 17  1  0  0  0  0
  3 18  1  0  0  0  0
  4 31  1  0  0  0  0
  8 32  1  0  0  0  0
 33 34  1  0  0  0  0
 33 38  2  0  0  0  0
 34 35  2  0  0  0  0
 35 36  1  0  0  0  0
 36 37  2  0  0  0  0
 37 38  1  0  0  0  0
  7 33  1  0  0  0  0
M  END
> <score_KierFlex>
0.517142

$$$$
suggested molecule #171
 MOE2019            2D

 37 40  0  0  1  0  0  0  0  0999 V2000
    3.4992   -1.2833    0.0000 C   0  0  0  0  0  0  0  0  0  1  0  0
    4.9992   -1.2762    0.0000 C   0  0  0  0  0  0  0  0  0  2  0  0
    5.7430    0.0263    0.0000 C   0  0  0  0  0  0  0  0  0  3  0  0
    4.9869    1.3218    0.0000 C   0  0  0  0  0  0  0  0  0  4  0  0
    3.4870    1.3147    0.0000 C   0  0  0  0  0  0  0  0  0  5  0  0
    2.7431    0.0122    0.0000 C   0  0  0  0  0  0  0  0  0  6  0  0
    1.2431    0.0051    0.0000 C   0  0  0  0  0  0  0  0  0  7  0  0
    0.4870    1.3006    0.0000 C   0  0  0  0  0  0  0  0  0  8  0  0
    1.2309    2.6032    0.0000 C   0  0  0  0  0  0  0  0  0  9  0  0
    0.4748    3.8987    0.0000 O   0  0  0  0  0  0  0  0  0 10  0  0
    2.7309    2.6102    0.0000 O   0  0  0  0  0  0  0  0  0 11  0  0
    2.9041   -2.3253    0.0000 H   0  0  0  0  0  0  0  0  0  0  0  0
    9.4220   -1.2110    0.0000 C   0  0  0  0  0  0  0  0  0  0  0  0
    8.6781   -2.5136    0.0000 C   0  0  0  0  0  0  0  0  0  0  0  0
    7.9342   -3.8161    0.0000 C   0  0  0  0  0  0  0  0  0  0  0  0
    7.3755   -1.7697    0.0000 C   0  0  1  0  0  0  0  0  0  0  0  0
    6.0081   -2.3862    0.0000 C   0  0  0  0  0  0  0  0  0  0  0  0
    7.2117   -0.2787    0.0000 O   0  0  0  0  0  0  0  0  0  0  0  0
    9.9806   -3.2575    0.0000 O   0  0  0  0  0  0  0  0  0  0  0  0
   11.2761   -2.5013    0.0000 C   0  0  1  0  0  0  0  0  0  0  0  0
   12.5787   -3.2452    0.0000 C   0  0  1  0  0  0  0  0  0  0  0  0
   13.8742   -2.4891    0.0000 C   0  0  2  0  0  0  0  0  0  0  0  0
   13.8671   -0.9891    0.0000 C   0  0  1  0  0  0  0  0  0  0  0  0
   12.5646   -0.2453    0.0000 C   0  0  2  0  0  0  0  0  0  0  0  0
   11.2691   -1.0014    0.0000 O   0  0  0  0  0  0  0  0  0  0  0  0
   12.5575    1.2547    0.0000 C   0  0  0  0  0  0  0  0  0  0  0  0
   13.8530    2.0108    0.0000 O   0  0  0  0  0  0  0  0  0  0  0  0
   15.1626   -0.2330    0.0000 O   0  0  0  0  0  0  0  0  0  0  0  0
   15.1767   -3.2330    0.0000 O   0  0  0  0  0  0  0  0  0  0  0  0
   12.5857   -4.7452    0.0000 O   0  0  0  0  0  0  0  0  0  0  0  0
    5.7308    2.6244    0.0000 O   0  0  0  0  0  0  0  0  0  0  0  0
   -0.7130    1.2950    0.0000 H   0  0  0  0  0  0  0  0  0  0  0  0
    0.4992   -1.2974    0.0000 C   0  0  0  0  0  0  0  0  0  0  0  0
   -1.0008   -1.3045    0.0000 C   0  0  0  0  0  0  0  0  0  0  0  0
   -1.7447   -2.6070    0.0000 C   0  0  0  0  0  0  0  0  0  0  0  0
   -0.9886   -3.9025    0.0000 O   0  0  0  0  0  0  0  0  0  0  0  0
   -3.2446   -2.6141    0.0000 O   0  0  0  0  0  0  0  0  0  0  0  0
  1  2  2  0  0  0  0
  1  6  1  0  0  0  0
  2  3  1  0  0  0  0
  3  4  2  0  0  0  0
  4  5  1  0  0  0  0
  5  6  2  0  0  0  0
  5 11  1  0  0  0  0
  6  7  1  0  0  0  0
  7  8  2  0  0  0  0
  8  9  1  0  0  0  0
  9 10  2  0  0  0  0
  9 11  1  0  0  0  0
  1 12  1  0  0  0  0
 13 14  1  0  0  0  0
 14 15  1  0  0  0  0
 16 14  1  1  0  0  0
 14 19  1  0  0  0  0
 16 17  1  0  0  0  0
 16 18  1  0  0  0  0
 20 19  1  1  0  0  0
 20 21  1  0  0  0  0
 20 25  1  0  0  0  0
 21 22  1  0  0  0  0
 21 30  1  6  0  0  0
 22 23  1  0  0  0  0
 22 29  1  1  0  0  0
 23 24  1  0  0  0  0
 23 28  1  6  0  0  0
 24 25  1  0  0  0  0
 24 26  1  1  0  0  0
 26 27  1  0  0  0  0
  2 17  1  0  0  0  0
  3 18  1  0  0  0  0
  4 31  1  0  0  0  0
  8 32  1  0  0  0  0
 33 34  1  0  0  0  0
 34 35  1  0  0  0  0
 35 36  2  0  0  0  0
 35 37  1  0  0  0  0
  7 33  1  0  0  0  0
M  END
> <score_Kier3>
0.511457

$$$$
suggested molecule #172
 MOE2019            2D

 37 40  0  0  1  0  0  0  0  0999 V2000
    3.4992   -1.2833    0.0000 C   0  0  0  0  0  0  0  0  0  1  0  0
    4.9992   -1.2762    0.0000 C   0  0  0  0  0  0  0  0  0  2  0  0
    5.7430    0.0263    0.0000 C   0  0  0  0  0  0  0  0  0  3  0  0
    4.9869    1.3218    0.0000 C   0  0  0  0  0  0  0  0  0  4  0  0
    3.4870    1.3147    0.0000 C   0  0  0  0  0  0  0  0  0  5  0  0
    2.7431    0.0122    0.0000 C   0  0  0  0  0  0  0  0  0  6  0  0
    1.2431    0.0051    0.0000 C   0  0  0  0  0  0  0  0  0  7  0  0
    0.4870    1.3006    0.0000 C   0  0  0  0  0  0  0  0  0  8  0  0
    1.2309    2.6032    0.0000 C   0  0  0  0  0  0  0  0  0  9  0  0
    0.4748    3.8987    0.0000 O   0  0  0  0  0  0  0  0  0 10  0  0
    2.7309    2.6102    0.0000 O   0  0  0  0  0  0  0  0  0 11  0  0
    2.9041   -2.3253    0.0000 H   0  0  0  0  0  0  0  0  0  0  0  0
    9.4220   -1.2110    0.0000 C   0  0  0  0  0  0  0  0  0  0  0  0
    8.6781   -2.5136    0.0000 C   0  0  0  0  0  0  0  0  0  0  0  0
    7.9342   -3.8161    0.0000 C   0  0  0  0  0  0  0  0  0  0  0  0
    7.3755   -1.7697    0.0000 C   0  0  1  0  0  0  0  0  0  0  0  0
    6.0081   -2.3862    0.0000 C   0  0  0  0  0  0  0  0  0  0  0  0
    7.2117   -0.2787    0.0000 O   0  0  0  0  0  0  0  0  0  0  0  0
    9.9806   -3.2575    0.0000 O   0  0  0  0  0  0  0  0  0  0  0  0
   11.2761   -2.5013    0.0000 C   0  0  1  0  0  0  0  0  0  0  0  0
   12.5787   -3.2452    0.0000 C   0  0  1  0  0  0  0  0  0  0  0  0
   13.8742   -2.4891    0.0000 C   0  0  2  0  0  0  0  0  0  0  0  0
   13.8671   -0.9891    0.0000 C   0  0  1  0  0  0  0  0  0  0  0  0
   12.5646   -0.2453    0.0000 C   0  0  2  0  0  0  0  0  0  0  0  0
   11.2691   -1.0014    0.0000 O   0  0  0  0  0  0  0  0  0  0  0  0
   12.5575    1.2547    0.0000 C   0  0  0  0  0  0  0  0  0  0  0  0
   13.8530    2.0108    0.0000 O   0  0  0  0  0  0  0  0  0  0  0  0
   15.1626   -0.2330    0.0000 O   0  0  0  0  0  0  0  0  0  0  0  0
   15.1767   -3.2330    0.0000 O   0  0  0  0  0  0  0  0  0  0  0  0
   12.5857   -4.7452    0.0000 O   0  0  0  0  0  0  0  0  0  0  0  0
    5.7308    2.6244    0.0000 O   0  0  0  0  0  0  0  0  0  0  0  0
   -0.7130    1.2950    0.0000 H   0  0  0  0  0  0  0  0  0  0  0  0
    0.4992   -1.2974    0.0000 C   0  0  0  0  0  0  0  0  0  0  0  0
   -1.0008   -1.3045    0.0000 C   0  0  0  0  0  0  0  0  0  0  0  0
   -1.7447   -2.6070    0.0000 C   0  0  0  0  0  0  0  0  0  0  0  0
   -0.9886   -3.9025    0.0000 O   0  0  0  0  0  0  0  0  0  0  0  0
   -3.2446   -2.6141    0.0000 O   0  0  0  0  0  0  0  0  0  0  0  0
  1  2  2  0  0  0  0
  1  6  1  0  0  0  0
  2  3  1  0  0  0  0
  3  4  2  0  0  0  0
  4  5  1  0  0  0  0
  5  6  2  0  0  0  0
  5 11  1  0  0  0  0
  6  7  1  0  0  0  0
  7  8  2  0  0  0  0
  8  9  1  0  0  0  0
  9 10  2  0  0  0  0
  9 11  1  0  0  0  0
  1 12  1  0  0  0  0
 13 14  1  0  0  0  0
 14 15  1  0  0  0  0
 16 14  1  1  0  0  0
 14 19  1  0  0  0  0
 16 17  1  0  0  0  0
 16 18  1  0  0  0  0
 20 19  1  1  0  0  0
 20 21  1  0  0  0  0
 20 25  1  0  0  0  0
 21 22  1  0  0  0  0
 21 30  1  6  0  0  0
 22 23  1  0  0  0  0
 22 29  1  1  0  0  0
 23 24  1  0  0  0  0
 23 28  1  6  0  0  0
 24 25  1  0  0  0  0
 24 26  1  1  0  0  0
 26 27  1  0  0  0  0
  2 17  1  0  0  0  0
  3 18  1  0  0  0  0
  4 31  1  0  0  0  0
  8 32  1  0  0  0  0
 33 34  1  0  0  0  0
 34 35  1  0  0  0  0
 35 36  2  0  0  0  0
 35 37  1  0  0  0  0
  7 33  1  0  0  0  0
M  END
> <score_KierFlex>
0.516289

$$$$
suggested molecule #173
 MOE2019            2D

 41 45  0  0  1  0  0  0  0  0999 V2000
    3.4992   -1.2833    0.0000 C   0  0  0  0  0  0  0  0  0  1  0  0
    4.9992   -1.2762    0.0000 C   0  0  0  0  0  0  0  0  0  2  0  0
    5.7430    0.0263    0.0000 C   0  0  0  0  0  0  0  0  0  3  0  0
    4.9869    1.3218    0.0000 C   0  0  0  0  0  0  0  0  0  4  0  0
    3.4870    1.3147    0.0000 C   0  0  0  0  0  0  0  0  0  5  0  0
    2.7431    0.0122    0.0000 C   0  0  0  0  0  0  0  0  0  6  0  0
    1.2431    0.0051    0.0000 C   0  0  0  0  0  0  0  0  0  7  0  0
    0.4870    1.3006    0.0000 C   0  0  0  0  0  0  0  0  0  8  0  0
    1.2309    2.6032    0.0000 C   0  0  0  0  0  0  0  0  0  9  0  0
    0.4748    3.8987    0.0000 O   0  0  0  0  0  0  0  0  0 10  0  0
    2.7309    2.6102    0.0000 O   0  0  0  0  0  0  0  0  0 11  0  0
    2.9041   -2.3253    0.0000 H   0  0  0  0  0  0  0  0  0  0  0  0
    9.4220   -1.2110    0.0000 C   0  0  0  0  0  0  0  0  0  0  0  0
    8.6781   -2.5136    0.0000 C   0  0  0  0  0  0  0  0  0  0  0  0
    7.9342   -3.8161    0.0000 C   0  0  0  0  0  0  0  0  0  0  0  0
    7.3755   -1.7697    0.0000 C   0  0  1  0  0  0  0  0  0  0  0  0
    6.0081   -2.3862    0.0000 C   0  0  0  0  0  0  0  0  0  0  0  0
    7.2117   -0.2787    0.0000 O   0  0  0  0  0  0  0  0  0  0  0  0
    9.9806   -3.2575    0.0000 O   0  0  0  0  0  0  0  0  0  0  0  0
   11.2761   -2.5013    0.0000 C   0  0  1  0  0  0  0  0  0  0  0  0
   12.5787   -3.2452    0.0000 C   0  0  1  0  0  0  0  0  0  0  0  0
   13.8742   -2.4891    0.0000 C   0  0  2  0  0  0  0  0  0  0  0  0
   13.8671   -0.9891    0.0000 C   0  0  1  0  0  0  0  0  0  0  0  0
   12.5646   -0.2453    0.0000 C   0  0  2  0  0  0  0  0  0  0  0  0
   11.2691   -1.0014    0.0000 O   0  0  0  0  0  0  0  0  0  0  0  0
   12.5575    1.2547    0.0000 C   0  0  0  0  0  0  0  0  0  0  0  0
   13.8530    2.0108    0.0000 O   0  0  0  0  0  0  0  0  0  0  0  0
   15.1626   -0.2330    0.0000 O   0  0  0  0  0  0  0  0  0  0  0  0
   15.1767   -3.2330    0.0000 O   0  0  0  0  0  0  0  0  0  0  0  0
   12.5857   -4.7452    0.0000 O   0  0  0  0  0  0  0  0  0  0  0  0
    5.7308    2.6244    0.0000 O   0  0  0  0  0  0  0  0  0  0  0  0
   -0.7130    1.2950    0.0000 H   0  0  0  0  0  0  0  0  0  0  0  0
    1.2553   -2.5929    0.0000 C   0  0  0  0  0  0  0  0  0  0  0  0
    0.5114   -3.8955    0.0000 C   0  0  0  0  0  0  0  0  0  0  0  0
   -0.9886   -3.9025    0.0000 C   0  0  0  0  0  0  0  0  0  0  0  0
   -1.7447   -2.6070    0.0000 C   0  0  0  0  0  0  0  0  0  0  0  0
   -1.0008   -1.3045    0.0000 C   0  0  0  0  0  0  0  0  0  0  0  0
    0.4992   -1.2974    0.0000 C   0  0  0  0  0  0  0  0  0  0  0  0
   -1.7569   -0.0090    0.0000 O   0  0  0  0  0  0  0  0  0  0  0  0
   -3.2446   -2.6141    0.0000 O   0  0  0  0  0  0  0  0  0  0  0  0
   -1.7324   -5.2051    0.0000 O   0  0  0  0  0  0  0  0  0  0  0  0
  1  2  2  0  0  0  0
  1  6  1  0  0  0  0
  2  3  1  0  0  0  0
  3  4  2  0  0  0  0
  4  5  1  0  0  0  0
  5  6  2  0  0  0  0
  5 11  1  0  0  0  0
  6  7  1  0  0  0  0
  7  8  2  0  0  0  0
  8  9  1  0  0  0  0
  9 10  2  0  0  0  0
  9 11  1  0  0  0  0
  1 12  1  0  0  0  0
 13 14  1  0  0  0  0
 14 15  1  0  0  0  0
 16 14  1  1  0  0  0
 14 19  1  0  0  0  0
 16 17  1  0  0  0  0
 16 18  1  0  0  0  0
 20 19  1  1  0  0  0
 20 21  1  0  0  0  0
 20 25  1  0  0  0  0
 21 22  1  0  0  0  0
 21 30  1  6  0  0  0
 22 23  1  0  0  0  0
 22 29  1  1  0  0  0
 23 24  1  0  0  0  0
 23 28  1  6  0  0  0
 24 25  1  0  0  0  0
 24 26  1  1  0  0  0
 26 27  1  0  0  0  0
  2 17  1  0  0  0  0
  3 18  1  0  0  0  0
  4 31  1  0  0  0  0
  8 32  1  0  0  0  0
 33 34  2  0  0  0  0
 33 38  1  0  0  0  0
 34 35  1  0  0  0  0
 35 36  2  0  0  0  0
 35 41  1  0  0  0  0
 36 37  1  0  0  0  0
 36 40  1  0  0  0  0
 37 38  2  0  0  0  0
 37 39  1  0  0  0  0
  7 38  1  0  0  0  0
M  END
> <score_Kier3>
0.511481

$$$$
suggested molecule #174
 MOE2019            2D

 41 45  0  0  1  0  0  0  0  0999 V2000
    3.4992   -1.2833    0.0000 C   0  0  0  0  0  0  0  0  0  1  0  0
    4.9992   -1.2762    0.0000 C   0  0  0  0  0  0  0  0  0  2  0  0
    5.7430    0.0263    0.0000 C   0  0  0  0  0  0  0  0  0  3  0  0
    4.9869    1.3218    0.0000 C   0  0  0  0  0  0  0  0  0  4  0  0
    3.4870    1.3147    0.0000 C   0  0  0  0  0  0  0  0  0  5  0  0
    2.7431    0.0122    0.0000 C   0  0  0  0  0  0  0  0  0  6  0  0
    1.2431    0.0051    0.0000 C   0  0  0  0  0  0  0  0  0  7  0  0
    0.4870    1.3006    0.0000 C   0  0  0  0  0  0  0  0  0  8  0  0
    1.2309    2.6032    0.0000 C   0  0  0  0  0  0  0  0  0  9  0  0
    0.4748    3.8987    0.0000 O   0  0  0  0  0  0  0  0  0 10  0  0
    2.7309    2.6102    0.0000 O   0  0  0  0  0  0  0  0  0 11  0  0
    2.9041   -2.3253    0.0000 H   0  0  0  0  0  0  0  0  0  0  0  0
    9.4220   -1.2110    0.0000 C   0  0  0  0  0  0  0  0  0  0  0  0
    8.6781   -2.5136    0.0000 C   0  0  0  0  0  0  0  0  0  0  0  0
    7.9342   -3.8161    0.0000 C   0  0  0  0  0  0  0  0  0  0  0  0
    7.3755   -1.7697    0.0000 C   0  0  1  0  0  0  0  0  0  0  0  0
    6.0081   -2.3862    0.0000 C   0  0  0  0  0  0  0  0  0  0  0  0
    7.2117   -0.2787    0.0000 O   0  0  0  0  0  0  0  0  0  0  0  0
    9.9806   -3.2575    0.0000 O   0  0  0  0  0  0  0  0  0  0  0  0
   11.2761   -2.5013    0.0000 C   0  0  1  0  0  0  0  0  0  0  0  0
   12.5787   -3.2452    0.0000 C   0  0  1  0  0  0  0  0  0  0  0  0
   13.8742   -2.4891    0.0000 C   0  0  2  0  0  0  0  0  0  0  0  0
   13.8671   -0.9891    0.0000 C   0  0  1  0  0  0  0  0  0  0  0  0
   12.5646   -0.2453    0.0000 C   0  0  2  0  0  0  0  0  0  0  0  0
   11.2691   -1.0014    0.0000 O   0  0  0  0  0  0  0  0  0  0  0  0
   12.5575    1.2547    0.0000 C   0  0  0  0  0  0  0  0  0  0  0  0
   13.8530    2.0108    0.0000 O   0  0  0  0  0  0  0  0  0  0  0  0
   15.1626   -0.2330    0.0000 O   0  0  0  0  0  0  0  0  0  0  0  0
   15.1767   -3.2330    0.0000 O   0  0  0  0  0  0  0  0  0  0  0  0
   12.5857   -4.7452    0.0000 O   0  0  0  0  0  0  0  0  0  0  0  0
    5.7308    2.6244    0.0000 O   0  0  0  0  0  0  0  0  0  0  0  0
   -0.7130    1.2950    0.0000 H   0  0  0  0  0  0  0  0  0  0  0  0
    1.2553   -2.5929    0.0000 C   0  0  0  0  0  0  0  0  0  0  0  0
    0.5114   -3.8955    0.0000 C   0  0  0  0  0  0  0  0  0  0  0  0
   -0.9886   -3.9025    0.0000 C   0  0  0  0  0  0  0  0  0  0  0  0
   -1.7447   -2.6070    0.0000 C   0  0  0  0  0  0  0  0  0  0  0  0
   -1.0008   -1.3045    0.0000 C   0  0  0  0  0  0  0  0  0  0  0  0
    0.4992   -1.2974    0.0000 C   0  0  0  0  0  0  0  0  0  0  0  0
   -1.7569   -0.0090    0.0000 O   0  0  0  0  0  0  0  0  0  0  0  0
   -3.2446   -2.6141    0.0000 O   0  0  0  0  0  0  0  0  0  0  0  0
   -1.7324   -5.2051    0.0000 O   0  0  0  0  0  0  0  0  0  0  0  0
  1  2  2  0  0  0  0
  1  6  1  0  0  0  0
  2  3  1  0  0  0  0
  3  4  2  0  0  0  0
  4  5  1  0  0  0  0
  5  6  2  0  0  0  0
  5 11  1  0  0  0  0
  6  7  1  0  0  0  0
  7  8  2  0  0  0  0
  8  9  1  0  0  0  0
  9 10  2  0  0  0  0
  9 11  1  0  0  0  0
  1 12  1  0  0  0  0
 13 14  1  0  0  0  0
 14 15  1  0  0  0  0
 16 14  1  1  0  0  0
 14 19  1  0  0  0  0
 16 17  1  0  0  0  0
 16 18  1  0  0  0  0
 20 19  1  1  0  0  0
 20 21  1  0  0  0  0
 20 25  1  0  0  0  0
 21 22  1  0  0  0  0
 21 30  1  6  0  0  0
 22 23  1  0  0  0  0
 22 29  1  1  0  0  0
 23 24  1  0  0  0  0
 23 28  1  6  0  0  0
 24 25  1  0  0  0  0
 24 26  1  1  0  0  0
 26 27  1  0  0  0  0
  2 17  1  0  0  0  0
  3 18  1  0  0  0  0
  4 31  1  0  0  0  0
  8 32  1  0  0  0  0
 33 34  2  0  0  0  0
 33 38  1  0  0  0  0
 34 35  1  0  0  0  0
 35 36  2  0  0  0  0
 35 41  1  0  0  0  0
 36 37  1  0  0  0  0
 36 40  1  0  0  0  0
 37 38  2  0  0  0  0
 37 39  1  0  0  0  0
  7 38  1  0  0  0  0
M  END
> <score_KierA3>
0.512141

$$$$
suggested molecule #175
 MOE2019            2D

 41 45  0  0  1  0  0  0  0  0999 V2000
    3.4992   -1.2833    0.0000 C   0  0  0  0  0  0  0  0  0  1  0  0
    4.9992   -1.2762    0.0000 C   0  0  0  0  0  0  0  0  0  2  0  0
    5.7430    0.0263    0.0000 C   0  0  0  0  0  0  0  0  0  3  0  0
    4.9869    1.3218    0.0000 C   0  0  0  0  0  0  0  0  0  4  0  0
    3.4870    1.3147    0.0000 C   0  0  0  0  0  0  0  0  0  5  0  0
    2.7431    0.0122    0.0000 C   0  0  0  0  0  0  0  0  0  6  0  0
    1.2431    0.0051    0.0000 C   0  0  0  0  0  0  0  0  0  7  0  0
    0.4870    1.3006    0.0000 C   0  0  0  0  0  0  0  0  0  8  0  0
    1.2309    2.6032    0.0000 C   0  0  0  0  0  0  0  0  0  9  0  0
    0.4748    3.8987    0.0000 O   0  0  0  0  0  0  0  0  0 10  0  0
    2.7309    2.6102    0.0000 O   0  0  0  0  0  0  0  0  0 11  0  0
    2.9041   -2.3253    0.0000 H   0  0  0  0  0  0  0  0  0  0  0  0
    9.4220   -1.2110    0.0000 C   0  0  0  0  0  0  0  0  0  0  0  0
    8.6781   -2.5136    0.0000 C   0  0  0  0  0  0  0  0  0  0  0  0
    7.9342   -3.8161    0.0000 C   0  0  0  0  0  0  0  0  0  0  0  0
    7.3755   -1.7697    0.0000 C   0  0  1  0  0  0  0  0  0  0  0  0
    6.0081   -2.3862    0.0000 C   0  0  0  0  0  0  0  0  0  0  0  0
    7.2117   -0.2787    0.0000 O   0  0  0  0  0  0  0  0  0  0  0  0
    9.9806   -3.2575    0.0000 O   0  0  0  0  0  0  0  0  0  0  0  0
   11.2761   -2.5013    0.0000 C   0  0  1  0  0  0  0  0  0  0  0  0
   12.5787   -3.2452    0.0000 C   0  0  1  0  0  0  0  0  0  0  0  0
   13.8742   -2.4891    0.0000 C   0  0  2  0  0  0  0  0  0  0  0  0
   13.8671   -0.9891    0.0000 C   0  0  1  0  0  0  0  0  0  0  0  0
   12.5646   -0.2453    0.0000 C   0  0  2  0  0  0  0  0  0  0  0  0
   11.2691   -1.0014    0.0000 O   0  0  0  0  0  0  0  0  0  0  0  0
   12.5575    1.2547    0.0000 C   0  0  0  0  0  0  0  0  0  0  0  0
   13.8530    2.0108    0.0000 O   0  0  0  0  0  0  0  0  0  0  0  0
   15.1626   -0.2330    0.0000 O   0  0  0  0  0  0  0  0  0  0  0  0
   15.1767   -3.2330    0.0000 O   0  0  0  0  0  0  0  0  0  0  0  0
   12.5857   -4.7452    0.0000 O   0  0  0  0  0  0  0  0  0  0  0  0
    5.7308    2.6244    0.0000 O   0  0  0  0  0  0  0  0  0  0  0  0
   -0.7130    1.2950    0.0000 H   0  0  0  0  0  0  0  0  0  0  0  0
    1.2553   -2.5929    0.0000 C   0  0  0  0  0  0  0  0  0  0  0  0
    0.5114   -3.8955    0.0000 C   0  0  0  0  0  0  0  0  0  0  0  0
   -0.9886   -3.9025    0.0000 C   0  0  0  0  0  0  0  0  0  0  0  0
   -1.7447   -2.6070    0.0000 C   0  0  0  0  0  0  0  0  0  0  0  0
   -1.0008   -1.3045    0.0000 C   0  0  0  0  0  0  0  0  0  0  0  0
    0.4992   -1.2974    0.0000 C   0  0  0  0  0  0  0  0  0  0  0  0
   -1.7569   -0.0090    0.0000 O   0  0  0  0  0  0  0  0  0  0  0  0
   -3.2446   -2.6141    0.0000 O   0  0  0  0  0  0  0  0  0  0  0  0
   -1.7324   -5.2051    0.0000 O   0  0  0  0  0  0  0  0  0  0  0  0
  1  2  2  0  0  0  0
  1  6  1  0  0  0  0
  2  3  1  0  0  0  0
  3  4  2  0  0  0  0
  4  5  1  0  0  0  0
  5  6  2  0  0  0  0
  5 11  1  0  0  0  0
  6  7  1  0  0  0  0
  7  8  2  0  0  0  0
  8  9  1  0  0  0  0
  9 10  2  0  0  0  0
  9 11  1  0  0  0  0
  1 12  1  0  0  0  0
 13 14  1  0  0  0  0
 14 15  1  0  0  0  0
 16 14  1  1  0  0  0
 14 19  1  0  0  0  0
 16 17  1  0  0  0  0
 16 18  1  0  0  0  0
 20 19  1  1  0  0  0
 20 21  1  0  0  0  0
 20 25  1  0  0  0  0
 21 22  1  0  0  0  0
 21 30  1  6  0  0  0
 22 23  1  0  0  0  0
 22 29  1  1  0  0  0
 23 24  1  0  0  0  0
 23 28  1  6  0  0  0
 24 25  1  0  0  0  0
 24 26  1  1  0  0  0
 26 27  1  0  0  0  0
  2 17  1  0  0  0  0
  3 18  1  0  0  0  0
  4 31  1  0  0  0  0
  8 32  1  0  0  0  0
 33 34  2  0  0  0  0
 33 38  1  0  0  0  0
 34 35  1  0  0  0  0
 35 36  2  0  0  0  0
 35 41  1  0  0  0  0
 36 37  1  0  0  0  0
 36 40  1  0  0  0  0
 37 38  2  0  0  0  0
 37 39  1  0  0  0  0
  7 38  1  0  0  0  0
M  END
> <score_KierFlex>
0.516318

$$$$
suggested molecule #176
 MOE2019            2D

 40 44  0  0  1  0  0  0  0  0999 V2000
    3.4992   -1.2833    0.0000 C   0  0  0  0  0  0  0  0  0  1  0  0
    4.9992   -1.2762    0.0000 C   0  0  0  0  0  0  0  0  0  2  0  0
    5.7430    0.0263    0.0000 C   0  0  0  0  0  0  0  0  0  3  0  0
    4.9869    1.3218    0.0000 C   0  0  0  0  0  0  0  0  0  4  0  0
    3.4870    1.3147    0.0000 C   0  0  0  0  0  0  0  0  0  5  0  0
    2.7431    0.0122    0.0000 C   0  0  0  0  0  0  0  0  0  6  0  0
    1.2431    0.0051    0.0000 C   0  0  0  0  0  0  0  0  0  7  0  0
    0.4870    1.3006    0.0000 C   0  0  0  0  0  0  0  0  0  8  0  0
    1.2309    2.6032    0.0000 C   0  0  0  0  0  0  0  0  0  9  0  0
    0.4748    3.8987    0.0000 O   0  0  0  0  0  0  0  0  0 10  0  0
    2.7309    2.6102    0.0000 O   0  0  0  0  0  0  0  0  0 11  0  0
    2.9041   -2.3253    0.0000 H   0  0  0  0  0  0  0  0  0  0  0  0
    9.4220   -1.2110    0.0000 C   0  0  0  0  0  0  0  0  0  0  0  0
    8.6781   -2.5136    0.0000 C   0  0  0  0  0  0  0  0  0  0  0  0
    7.9342   -3.8161    0.0000 C   0  0  0  0  0  0  0  0  0  0  0  0
    7.3755   -1.7697    0.0000 C   0  0  1  0  0  0  0  0  0  0  0  0
    6.0081   -2.3862    0.0000 C   0  0  0  0  0  0  0  0  0  0  0  0
    7.2117   -0.2787    0.0000 O   0  0  0  0  0  0  0  0  0  0  0  0
    9.9806   -3.2575    0.0000 O   0  0  0  0  0  0  0  0  0  0  0  0
   11.2761   -2.5013    0.0000 C   0  0  1  0  0  0  0  0  0  0  0  0
   12.5787   -3.2452    0.0000 C   0  0  1  0  0  0  0  0  0  0  0  0
   13.8742   -2.4891    0.0000 C   0  0  2  0  0  0  0  0  0  0  0  0
   13.8671   -0.9891    0.0000 C   0  0  1  0  0  0  0  0  0  0  0  0
   12.5646   -0.2453    0.0000 C   0  0  2  0  0  0  0  0  0  0  0  0
   11.2691   -1.0014    0.0000 O   0  0  0  0  0  0  0  0  0  0  0  0
   12.5575    1.2547    0.0000 C   0  0  0  0  0  0  0  0  0  0  0  0
   13.8530    2.0108    0.0000 O   0  0  0  0  0  0  0  0  0  0  0  0
   15.1626   -0.2330    0.0000 O   0  0  0  0  0  0  0  0  0  0  0  0
   15.1767   -3.2330    0.0000 O   0  0  0  0  0  0  0  0  0  0  0  0
   12.5857   -4.7452    0.0000 O   0  0  0  0  0  0  0  0  0  0  0  0
    5.7308    2.6244    0.0000 O   0  0  0  0  0  0  0  0  0  0  0  0
   -0.7130    1.2950    0.0000 H   0  0  0  0  0  0  0  0  0  0  0  0
    0.4992   -1.2974    0.0000 C   0  0  0  0  0  0  0  0  0  0  0  0
   -1.0008   -1.3045    0.0000 C   0  0  0  0  0  0  0  0  0  0  0  0
   -1.7447   -2.6070    0.0000 C   0  0  0  0  0  0  0  0  0  0  0  0
   -0.9886   -3.9025    0.0000 C   0  0  0  0  0  0  0  0  0  0  0  0
    0.5114   -3.8955    0.0000 C   0  0  0  0  0  0  0  0  0  0  0  0
    1.2553   -2.5929    0.0000 C   0  0  0  0  0  0  0  0  0  0  0  0
   -1.7324   -5.2051    0.0000 O   0  0  0  0  0  0  0  0  0  0  0  0
   -1.7569   -0.0090    0.0000 O   0  0  0  0  0  0  0  0  0  0  0  0
  1  2  2  0  0  0  0
  1  6  1  0  0  0  0
  2  3  1  0  0  0  0
  3  4  2  0  0  0  0
  4  5  1  0  0  0  0
  5  6  2  0  0  0  0
  5 11  1  0  0  0  0
  6  7  1  0  0  0  0
  7  8  2  0  0  0  0
  8  9  1  0  0  0  0
  9 10  2  0  0  0  0
  9 11  1  0  0  0  0
  1 12  1  0  0  0  0
 13 14  1  0  0  0  0
 14 15  1  0  0  0  0
 16 14  1  1  0  0  0
 14 19  1  0  0  0  0
 16 17  1  0  0  0  0
 16 18  1  0  0  0  0
 20 19  1  1  0  0  0
 20 21  1  0  0  0  0
 20 25  1  0  0  0  0
 21 22  1  0  0  0  0
 21 30  1  6  0  0  0
 22 23  1  0  0  0  0
 22 29  1  1  0  0  0
 23 24  1  0  0  0  0
 23 28  1  6  0  0  0
 24 25  1  0  0  0  0
 24 26  1  1  0  0  0
 26 27  1  0  0  0  0
  2 17  1  0  0  0  0
  3 18  1  0  0  0  0
  4 31  1  0  0  0  0
  8 32  1  0  0  0  0
 33 34  2  0  0  0  0
 33 38  1  0  0  0  0
 34 35  1  0  0  0  0
 34 40  1  0  0  0  0
 35 36  2  0  0  0  0
 36 37  1  0  0  0  0
 36 39  1  0  0  0  0
 37 38  2  0  0  0  0
  7 33  1  0  0  0  0
M  END
> <score_Kier3>
0.511441

$$$$
suggested molecule #177
 MOE2019            2D

 40 44  0  0  1  0  0  0  0  0999 V2000
    3.4992   -1.2833    0.0000 C   0  0  0  0  0  0  0  0  0  1  0  0
    4.9992   -1.2762    0.0000 C   0  0  0  0  0  0  0  0  0  2  0  0
    5.7430    0.0263    0.0000 C   0  0  0  0  0  0  0  0  0  3  0  0
    4.9869    1.3218    0.0000 C   0  0  0  0  0  0  0  0  0  4  0  0
    3.4870    1.3147    0.0000 C   0  0  0  0  0  0  0  0  0  5  0  0
    2.7431    0.0122    0.0000 C   0  0  0  0  0  0  0  0  0  6  0  0
    1.2431    0.0051    0.0000 C   0  0  0  0  0  0  0  0  0  7  0  0
    0.4870    1.3006    0.0000 C   0  0  0  0  0  0  0  0  0  8  0  0
    1.2309    2.6032    0.0000 C   0  0  0  0  0  0  0  0  0  9  0  0
    0.4748    3.8987    0.0000 O   0  0  0  0  0  0  0  0  0 10  0  0
    2.7309    2.6102    0.0000 O   0  0  0  0  0  0  0  0  0 11  0  0
    2.9041   -2.3253    0.0000 H   0  0  0  0  0  0  0  0  0  0  0  0
    9.4220   -1.2110    0.0000 C   0  0  0  0  0  0  0  0  0  0  0  0
    8.6781   -2.5136    0.0000 C   0  0  0  0  0  0  0  0  0  0  0  0
    7.9342   -3.8161    0.0000 C   0  0  0  0  0  0  0  0  0  0  0  0
    7.3755   -1.7697    0.0000 C   0  0  1  0  0  0  0  0  0  0  0  0
    6.0081   -2.3862    0.0000 C   0  0  0  0  0  0  0  0  0  0  0  0
    7.2117   -0.2787    0.0000 O   0  0  0  0  0  0  0  0  0  0  0  0
    9.9806   -3.2575    0.0000 O   0  0  0  0  0  0  0  0  0  0  0  0
   11.2761   -2.5013    0.0000 C   0  0  1  0  0  0  0  0  0  0  0  0
   12.5787   -3.2452    0.0000 C   0  0  1  0  0  0  0  0  0  0  0  0
   13.8742   -2.4891    0.0000 C   0  0  2  0  0  0  0  0  0  0  0  0
   13.8671   -0.9891    0.0000 C   0  0  1  0  0  0  0  0  0  0  0  0
   12.5646   -0.2453    0.0000 C   0  0  2  0  0  0  0  0  0  0  0  0
   11.2691   -1.0014    0.0000 O   0  0  0  0  0  0  0  0  0  0  0  0
   12.5575    1.2547    0.0000 C   0  0  0  0  0  0  0  0  0  0  0  0
   13.8530    2.0108    0.0000 O   0  0  0  0  0  0  0  0  0  0  0  0
   15.1626   -0.2330    0.0000 O   0  0  0  0  0  0  0  0  0  0  0  0
   15.1767   -3.2330    0.0000 O   0  0  0  0  0  0  0  0  0  0  0  0
   12.5857   -4.7452    0.0000 O   0  0  0  0  0  0  0  0  0  0  0  0
    5.7308    2.6244    0.0000 O   0  0  0  0  0  0  0  0  0  0  0  0
   -0.7130    1.2950    0.0000 H   0  0  0  0  0  0  0  0  0  0  0  0
    0.4992   -1.2974    0.0000 C   0  0  0  0  0  0  0  0  0  0  0  0
   -1.0008   -1.3045    0.0000 C   0  0  0  0  0  0  0  0  0  0  0  0
   -1.7447   -2.6070    0.0000 C   0  0  0  0  0  0  0  0  0  0  0  0
   -0.9886   -3.9025    0.0000 C   0  0  0  0  0  0  0  0  0  0  0  0
    0.5114   -3.8955    0.0000 C   0  0  0  0  0  0  0  0  0  0  0  0
    1.2553   -2.5929    0.0000 C   0  0  0  0  0  0  0  0  0  0  0  0
   -1.7324   -5.2051    0.0000 O   0  0  0  0  0  0  0  0  0  0  0  0
   -1.7569   -0.0090    0.0000 O   0  0  0  0  0  0  0  0  0  0  0  0
  1  2  2  0  0  0  0
  1  6  1  0  0  0  0
  2  3  1  0  0  0  0
  3  4  2  0  0  0  0
  4  5  1  0  0  0  0
  5  6  2  0  0  0  0
  5 11  1  0  0  0  0
  6  7  1  0  0  0  0
  7  8  2  0  0  0  0
  8  9  1  0  0  0  0
  9 10  2  0  0  0  0
  9 11  1  0  0  0  0
  1 12  1  0  0  0  0
 13 14  1  0  0  0  0
 14 15  1  0  0  0  0
 16 14  1  1  0  0  0
 14 19  1  0  0  0  0
 16 17  1  0  0  0  0
 16 18  1  0  0  0  0
 20 19  1  1  0  0  0
 20 21  1  0  0  0  0
 20 25  1  0  0  0  0
 21 22  1  0  0  0  0
 21 30  1  6  0  0  0
 22 23  1  0  0  0  0
 22 29  1  1  0  0  0
 23 24  1  0  0  0  0
 23 28  1  6  0  0  0
 24 25  1  0  0  0  0
 24 26  1  1  0  0  0
 26 27  1  0  0  0  0
  2 17  1  0  0  0  0
  3 18  1  0  0  0  0
  4 31  1  0  0  0  0
  8 32  1  0  0  0  0
 33 34  2  0  0  0  0
 33 38  1  0  0  0  0
 34 35  1  0  0  0  0
 34 40  1  0  0  0  0
 35 36  2  0  0  0  0
 36 37  1  0  0  0  0
 36 39  1  0  0  0  0
 37 38  2  0  0  0  0
  7 33  1  0  0  0  0
M  END
> <score_KierFlex>
0.516281

$$$$
suggested molecule #178
 MOE2019            2D

 39 43  0  0  1  0  0  0  0  0999 V2000
    3.4992   -1.2833    0.0000 C   0  0  0  0  0  0  0  0  0  1  0  0
    4.9992   -1.2762    0.0000 C   0  0  0  0  0  0  0  0  0  2  0  0
    5.7430    0.0263    0.0000 C   0  0  0  0  0  0  0  0  0  3  0  0
    4.9869    1.3218    0.0000 C   0  0  0  0  0  0  0  0  0  4  0  0
    3.4870    1.3147    0.0000 C   0  0  0  0  0  0  0  0  0  5  0  0
    2.7431    0.0122    0.0000 C   0  0  0  0  0  0  0  0  0  6  0  0
    1.2431    0.0051    0.0000 C   0  0  0  0  0  0  0  0  0  7  0  0
    0.4870    1.3006    0.0000 C   0  0  0  0  0  0  0  0  0  8  0  0
    1.2309    2.6032    0.0000 C   0  0  0  0  0  0  0  0  0  9  0  0
    0.4748    3.8987    0.0000 O   0  0  0  0  0  0  0  0  0 10  0  0
    2.7309    2.6102    0.0000 O   0  0  0  0  0  0  0  0  0 11  0  0
    2.9041   -2.3253    0.0000 H   0  0  0  0  0  0  0  0  0  0  0  0
    9.4220   -1.2110    0.0000 C   0  0  0  0  0  0  0  0  0  0  0  0
    8.6781   -2.5136    0.0000 C   0  0  0  0  0  0  0  0  0  0  0  0
    7.9342   -3.8161    0.0000 C   0  0  0  0  0  0  0  0  0  0  0  0
    7.3755   -1.7697    0.0000 C   0  0  1  0  0  0  0  0  0  0  0  0
    6.0081   -2.3862    0.0000 C   0  0  0  0  0  0  0  0  0  0  0  0
    7.2117   -0.2787    0.0000 O   0  0  0  0  0  0  0  0  0  0  0  0
    9.9806   -3.2575    0.0000 O   0  0  0  0  0  0  0  0  0  0  0  0
   11.2761   -2.5013    0.0000 C   0  0  1  0  0  0  0  0  0  0  0  0
   12.5787   -3.2452    0.0000 C   0  0  1  0  0  0  0  0  0  0  0  0
   13.8742   -2.4891    0.0000 C   0  0  2  0  0  0  0  0  0  0  0  0
   13.8671   -0.9891    0.0000 C   0  0  1  0  0  0  0  0  0  0  0  0
   12.5646   -0.2453    0.0000 C   0  0  2  0  0  0  0  0  0  0  0  0
   11.2691   -1.0014    0.0000 O   0  0  0  0  0  0  0  0  0  0  0  0
   12.5575    1.2547    0.0000 C   0  0  0  0  0  0  0  0  0  0  0  0
   13.8530    2.0108    0.0000 O   0  0  0  0  0  0  0  0  0  0  0  0
   15.1626   -0.2330    0.0000 O   0  0  0  0  0  0  0  0  0  0  0  0
   15.1767   -3.2330    0.0000 O   0  0  0  0  0  0  0  0  0  0  0  0
   12.5857   -4.7452    0.0000 O   0  0  0  0  0  0  0  0  0  0  0  0
    5.7308    2.6244    0.0000 O   0  0  0  0  0  0  0  0  0  0  0  0
   -0.7130    1.2950    0.0000 H   0  0  0  0  0  0  0  0  0  0  0  0
    0.5114   -3.8955    0.0000 C   0  0  0  0  0  0  0  0  0  0  0  0
   -0.9886   -3.9025    0.0000 C   0  0  0  0  0  0  0  0  0  0  0  0
   -1.7447   -2.6070    0.0000 C   0  0  0  0  0  0  0  0  0  0  0  0
   -1.0008   -1.3045    0.0000 C   0  0  0  0  0  0  0  0  0  0  0  0
    0.4992   -1.2974    0.0000 C   0  0  0  0  0  0  0  0  0  0  0  0
    1.2553   -2.5929    0.0000 C   0  0  0  0  0  0  0  0  0  0  0  0
   -1.7569   -0.0090    0.0000 O   0  0  0  0  0  0  0  0  0  0  0  0
  1  2  2  0  0  0  0
  1  6  1  0  0  0  0
  2  3  1  0  0  0  0
  3  4  2  0  0  0  0
  4  5  1  0  0  0  0
  5  6  2  0  0  0  0
  5 11  1  0  0  0  0
  6  7  1  0  0  0  0
  7  8  2  0  0  0  0
  8  9  1  0  0  0  0
  9 10  2  0  0  0  0
  9 11  1  0  0  0  0
  1 12  1  0  0  0  0
 13 14  1  0  0  0  0
 14 15  1  0  0  0  0
 16 14  1  1  0  0  0
 14 19  1  0  0  0  0
 16 17  1  0  0  0  0
 16 18  1  0  0  0  0
 20 19  1  1  0  0  0
 20 21  1  0  0  0  0
 20 25  1  0  0  0  0
 21 22  1  0  0  0  0
 21 30  1  6  0  0  0
 22 23  1  0  0  0  0
 22 29  1  1  0  0  0
 23 24  1  0  0  0  0
 23 28  1  6  0  0  0
 24 25  1  0  0  0  0
 24 26  1  1  0  0  0
 26 27  1  0  0  0  0
  2 17  1  0  0  0  0
  3 18  1  0  0  0  0
  4 31  1  0  0  0  0
  8 32  1  0  0  0  0
 33 34  2  0  0  0  0
 33 38  1  0  0  0  0
 34 35  1  0  0  0  0
 35 36  2  0  0  0  0
 36 37  1  0  0  0  0
 36 39  1  0  0  0  0
 37 38  2  0  0  0  0
  7 37  1  0  0  0  0
M  END
> <score_Kier3>
0.511491

$$$$
suggested molecule #179
 MOE2019            2D

 39 43  0  0  1  0  0  0  0  0999 V2000
    3.4992   -1.2833    0.0000 C   0  0  0  0  0  0  0  0  0  1  0  0
    4.9992   -1.2762    0.0000 C   0  0  0  0  0  0  0  0  0  2  0  0
    5.7430    0.0263    0.0000 C   0  0  0  0  0  0  0  0  0  3  0  0
    4.9869    1.3218    0.0000 C   0  0  0  0  0  0  0  0  0  4  0  0
    3.4870    1.3147    0.0000 C   0  0  0  0  0  0  0  0  0  5  0  0
    2.7431    0.0122    0.0000 C   0  0  0  0  0  0  0  0  0  6  0  0
    1.2431    0.0051    0.0000 C   0  0  0  0  0  0  0  0  0  7  0  0
    0.4870    1.3006    0.0000 C   0  0  0  0  0  0  0  0  0  8  0  0
    1.2309    2.6032    0.0000 C   0  0  0  0  0  0  0  0  0  9  0  0
    0.4748    3.8987    0.0000 O   0  0  0  0  0  0  0  0  0 10  0  0
    2.7309    2.6102    0.0000 O   0  0  0  0  0  0  0  0  0 11  0  0
    2.9041   -2.3253    0.0000 H   0  0  0  0  0  0  0  0  0  0  0  0
    9.4220   -1.2110    0.0000 C   0  0  0  0  0  0  0  0  0  0  0  0
    8.6781   -2.5136    0.0000 C   0  0  0  0  0  0  0  0  0  0  0  0
    7.9342   -3.8161    0.0000 C   0  0  0  0  0  0  0  0  0  0  0  0
    7.3755   -1.7697    0.0000 C   0  0  1  0  0  0  0  0  0  0  0  0
    6.0081   -2.3862    0.0000 C   0  0  0  0  0  0  0  0  0  0  0  0
    7.2117   -0.2787    0.0000 O   0  0  0  0  0  0  0  0  0  0  0  0
    9.9806   -3.2575    0.0000 O   0  0  0  0  0  0  0  0  0  0  0  0
   11.2761   -2.5013    0.0000 C   0  0  1  0  0  0  0  0  0  0  0  0
   12.5787   -3.2452    0.0000 C   0  0  1  0  0  0  0  0  0  0  0  0
   13.8742   -2.4891    0.0000 C   0  0  2  0  0  0  0  0  0  0  0  0
   13.8671   -0.9891    0.0000 C   0  0  1  0  0  0  0  0  0  0  0  0
   12.5646   -0.2453    0.0000 C   0  0  2  0  0  0  0  0  0  0  0  0
   11.2691   -1.0014    0.0000 O   0  0  0  0  0  0  0  0  0  0  0  0
   12.5575    1.2547    0.0000 C   0  0  0  0  0  0  0  0  0  0  0  0
   13.8530    2.0108    0.0000 O   0  0  0  0  0  0  0  0  0  0  0  0
   15.1626   -0.2330    0.0000 O   0  0  0  0  0  0  0  0  0  0  0  0
   15.1767   -3.2330    0.0000 O   0  0  0  0  0  0  0  0  0  0  0  0
   12.5857   -4.7452    0.0000 O   0  0  0  0  0  0  0  0  0  0  0  0
    5.7308    2.6244    0.0000 O   0  0  0  0  0  0  0  0  0  0  0  0
   -0.7130    1.2950    0.0000 H   0  0  0  0  0  0  0  0  0  0  0  0
    0.5114   -3.8955    0.0000 C   0  0  0  0  0  0  0  0  0  0  0  0
   -0.9886   -3.9025    0.0000 C   0  0  0  0  0  0  0  0  0  0  0  0
   -1.7447   -2.6070    0.0000 C   0  0  0  0  0  0  0  0  0  0  0  0
   -1.0008   -1.3045    0.0000 C   0  0  0  0  0  0  0  0  0  0  0  0
    0.4992   -1.2974    0.0000 C   0  0  0  0  0  0  0  0  0  0  0  0
    1.2553   -2.5929    0.0000 C   0  0  0  0  0  0  0  0  0  0  0  0
   -1.7569   -0.0090    0.0000 O   0  0  0  0  0  0  0  0  0  0  0  0
  1  2  2  0  0  0  0
  1  6  1  0  0  0  0
  2  3  1  0  0  0  0
  3  4  2  0  0  0  0
  4  5  1  0  0  0  0
  5  6  2  0  0  0  0
  5 11  1  0  0  0  0
  6  7  1  0  0  0  0
  7  8  2  0  0  0  0
  8  9  1  0  0  0  0
  9 10  2  0  0  0  0
  9 11  1  0  0  0  0
  1 12  1  0  0  0  0
 13 14  1  0  0  0  0
 14 15  1  0  0  0  0
 16 14  1  1  0  0  0
 14 19  1  0  0  0  0
 16 17  1  0  0  0  0
 16 18  1  0  0  0  0
 20 19  1  1  0  0  0
 20 21  1  0  0  0  0
 20 25  1  0  0  0  0
 21 22  1  0  0  0  0
 21 30  1  6  0  0  0
 22 23  1  0  0  0  0
 22 29  1  1  0  0  0
 23 24  1  0  0  0  0
 23 28  1  6  0  0  0
 24 25  1  0  0  0  0
 24 26  1  1  0  0  0
 26 27  1  0  0  0  0
  2 17  1  0  0  0  0
  3 18  1  0  0  0  0
  4 31  1  0  0  0  0
  8 32  1  0  0  0  0
 33 34  2  0  0  0  0
 33 38  1  0  0  0  0
 34 35  1  0  0  0  0
 35 36  2  0  0  0  0
 36 37  1  0  0  0  0
 36 39  1  0  0  0  0
 37 38  2  0  0  0  0
  7 37  1  0  0  0  0
M  END
> <score_KierA1>
0.517599

$$$$
suggested molecule #180
 MOE2019            2D

 39 43  0  0  1  0  0  0  0  0999 V2000
    3.4992   -1.2833    0.0000 C   0  0  0  0  0  0  0  0  0  1  0  0
    4.9992   -1.2762    0.0000 C   0  0  0  0  0  0  0  0  0  2  0  0
    5.7430    0.0263    0.0000 C   0  0  0  0  0  0  0  0  0  3  0  0
    4.9869    1.3218    0.0000 C   0  0  0  0  0  0  0  0  0  4  0  0
    3.4870    1.3147    0.0000 C   0  0  0  0  0  0  0  0  0  5  0  0
    2.7431    0.0122    0.0000 C   0  0  0  0  0  0  0  0  0  6  0  0
    1.2431    0.0051    0.0000 C   0  0  0  0  0  0  0  0  0  7  0  0
    0.4870    1.3006    0.0000 C   0  0  0  0  0  0  0  0  0  8  0  0
    1.2309    2.6032    0.0000 C   0  0  0  0  0  0  0  0  0  9  0  0
    0.4748    3.8987    0.0000 O   0  0  0  0  0  0  0  0  0 10  0  0
    2.7309    2.6102    0.0000 O   0  0  0  0  0  0  0  0  0 11  0  0
    2.9041   -2.3253    0.0000 H   0  0  0  0  0  0  0  0  0  0  0  0
    9.4220   -1.2110    0.0000 C   0  0  0  0  0  0  0  0  0  0  0  0
    8.6781   -2.5136    0.0000 C   0  0  0  0  0  0  0  0  0  0  0  0
    7.9342   -3.8161    0.0000 C   0  0  0  0  0  0  0  0  0  0  0  0
    7.3755   -1.7697    0.0000 C   0  0  1  0  0  0  0  0  0  0  0  0
    6.0081   -2.3862    0.0000 C   0  0  0  0  0  0  0  0  0  0  0  0
    7.2117   -0.2787    0.0000 O   0  0  0  0  0  0  0  0  0  0  0  0
    9.9806   -3.2575    0.0000 O   0  0  0  0  0  0  0  0  0  0  0  0
   11.2761   -2.5013    0.0000 C   0  0  1  0  0  0  0  0  0  0  0  0
   12.5787   -3.2452    0.0000 C   0  0  1  0  0  0  0  0  0  0  0  0
   13.8742   -2.4891    0.0000 C   0  0  2  0  0  0  0  0  0  0  0  0
   13.8671   -0.9891    0.0000 C   0  0  1  0  0  0  0  0  0  0  0  0
   12.5646   -0.2453    0.0000 C   0  0  2  0  0  0  0  0  0  0  0  0
   11.2691   -1.0014    0.0000 O   0  0  0  0  0  0  0  0  0  0  0  0
   12.5575    1.2547    0.0000 C   0  0  0  0  0  0  0  0  0  0  0  0
   13.8530    2.0108    0.0000 O   0  0  0  0  0  0  0  0  0  0  0  0
   15.1626   -0.2330    0.0000 O   0  0  0  0  0  0  0  0  0  0  0  0
   15.1767   -3.2330    0.0000 O   0  0  0  0  0  0  0  0  0  0  0  0
   12.5857   -4.7452    0.0000 O   0  0  0  0  0  0  0  0  0  0  0  0
    5.7308    2.6244    0.0000 O   0  0  0  0  0  0  0  0  0  0  0  0
   -0.7130    1.2950    0.0000 H   0  0  0  0  0  0  0  0  0  0  0  0
    0.5114   -3.8955    0.0000 C   0  0  0  0  0  0  0  0  0  0  0  0
   -0.9886   -3.9025    0.0000 C   0  0  0  0  0  0  0  0  0  0  0  0
   -1.7447   -2.6070    0.0000 C   0  0  0  0  0  0  0  0  0  0  0  0
   -1.0008   -1.3045    0.0000 C   0  0  0  0  0  0  0  0  0  0  0  0
    0.4992   -1.2974    0.0000 C   0  0  0  0  0  0  0  0  0  0  0  0
    1.2553   -2.5929    0.0000 C   0  0  0  0  0  0  0  0  0  0  0  0
   -1.7569   -0.0090    0.0000 O   0  0  0  0  0  0  0  0  0  0  0  0
  1  2  2  0  0  0  0
  1  6  1  0  0  0  0
  2  3  1  0  0  0  0
  3  4  2  0  0  0  0
  4  5  1  0  0  0  0
  5  6  2  0  0  0  0
  5 11  1  0  0  0  0
  6  7  1  0  0  0  0
  7  8  2  0  0  0  0
  8  9  1  0  0  0  0
  9 10  2  0  0  0  0
  9 11  1  0  0  0  0
  1 12  1  0  0  0  0
 13 14  1  0  0  0  0
 14 15  1  0  0  0  0
 16 14  1  1  0  0  0
 14 19  1  0  0  0  0
 16 17  1  0  0  0  0
 16 18  1  0  0  0  0
 20 19  1  1  0  0  0
 20 21  1  0  0  0  0
 20 25  1  0  0  0  0
 21 22  1  0  0  0  0
 21 30  1  6  0  0  0
 22 23  1  0  0  0  0
 22 29  1  1  0  0  0
 23 24  1  0  0  0  0
 23 28  1  6  0  0  0
 24 25  1  0  0  0  0
 24 26  1  1  0  0  0
 26 27  1  0  0  0  0
  2 17  1  0  0  0  0
  3 18  1  0  0  0  0
  4 31  1  0  0  0  0
  8 32  1  0  0  0  0
 33 34  2  0  0  0  0
 33 38  1  0  0  0  0
 34 35  1  0  0  0  0
 35 36  2  0  0  0  0
 36 37  1  0  0  0  0
 36 39  1  0  0  0  0
 37 38  2  0  0  0  0
  7 37  1  0  0  0  0
M  END
> <score_KierA3>
0.512157

$$$$
suggested molecule #181
 MOE2019            2D

 39 43  0  0  1  0  0  0  0  0999 V2000
    3.4992   -1.2833    0.0000 C   0  0  0  0  0  0  0  0  0  1  0  0
    4.9992   -1.2762    0.0000 C   0  0  0  0  0  0  0  0  0  2  0  0
    5.7430    0.0263    0.0000 C   0  0  0  0  0  0  0  0  0  3  0  0
    4.9869    1.3218    0.0000 C   0  0  0  0  0  0  0  0  0  4  0  0
    3.4870    1.3147    0.0000 C   0  0  0  0  0  0  0  0  0  5  0  0
    2.7431    0.0122    0.0000 C   0  0  0  0  0  0  0  0  0  6  0  0
    1.2431    0.0051    0.0000 C   0  0  0  0  0  0  0  0  0  7  0  0
    0.4870    1.3006    0.0000 C   0  0  0  0  0  0  0  0  0  8  0  0
    1.2309    2.6032    0.0000 C   0  0  0  0  0  0  0  0  0  9  0  0
    0.4748    3.8987    0.0000 O   0  0  0  0  0  0  0  0  0 10  0  0
    2.7309    2.6102    0.0000 O   0  0  0  0  0  0  0  0  0 11  0  0
    2.9041   -2.3253    0.0000 H   0  0  0  0  0  0  0  0  0  0  0  0
    9.4220   -1.2110    0.0000 C   0  0  0  0  0  0  0  0  0  0  0  0
    8.6781   -2.5136    0.0000 C   0  0  0  0  0  0  0  0  0  0  0  0
    7.9342   -3.8161    0.0000 C   0  0  0  0  0  0  0  0  0  0  0  0
    7.3755   -1.7697    0.0000 C   0  0  1  0  0  0  0  0  0  0  0  0
    6.0081   -2.3862    0.0000 C   0  0  0  0  0  0  0  0  0  0  0  0
    7.2117   -0.2787    0.0000 O   0  0  0  0  0  0  0  0  0  0  0  0
    9.9806   -3.2575    0.0000 O   0  0  0  0  0  0  0  0  0  0  0  0
   11.2761   -2.5013    0.0000 C   0  0  1  0  0  0  0  0  0  0  0  0
   12.5787   -3.2452    0.0000 C   0  0  1  0  0  0  0  0  0  0  0  0
   13.8742   -2.4891    0.0000 C   0  0  2  0  0  0  0  0  0  0  0  0
   13.8671   -0.9891    0.0000 C   0  0  1  0  0  0  0  0  0  0  0  0
   12.5646   -0.2453    0.0000 C   0  0  2  0  0  0  0  0  0  0  0  0
   11.2691   -1.0014    0.0000 O   0  0  0  0  0  0  0  0  0  0  0  0
   12.5575    1.2547    0.0000 C   0  0  0  0  0  0  0  0  0  0  0  0
   13.8530    2.0108    0.0000 O   0  0  0  0  0  0  0  0  0  0  0  0
   15.1626   -0.2330    0.0000 O   0  0  0  0  0  0  0  0  0  0  0  0
   15.1767   -3.2330    0.0000 O   0  0  0  0  0  0  0  0  0  0  0  0
   12.5857   -4.7452    0.0000 O   0  0  0  0  0  0  0  0  0  0  0  0
    5.7308    2.6244    0.0000 O   0  0  0  0  0  0  0  0  0  0  0  0
   -0.7130    1.2950    0.0000 H   0  0  0  0  0  0  0  0  0  0  0  0
    0.5114   -3.8955    0.0000 C   0  0  0  0  0  0  0  0  0  0  0  0
   -0.9886   -3.9025    0.0000 C   0  0  0  0  0  0  0  0  0  0  0  0
   -1.7447   -2.6070    0.0000 C   0  0  0  0  0  0  0  0  0  0  0  0
   -1.0008   -1.3045    0.0000 C   0  0  0  0  0  0  0  0  0  0  0  0
    0.4992   -1.2974    0.0000 C   0  0  0  0  0  0  0  0  0  0  0  0
    1.2553   -2.5929    0.0000 C   0  0  0  0  0  0  0  0  0  0  0  0
   -1.7569   -0.0090    0.0000 O   0  0  0  0  0  0  0  0  0  0  0  0
  1  2  2  0  0  0  0
  1  6  1  0  0  0  0
  2  3  1  0  0  0  0
  3  4  2  0  0  0  0
  4  5  1  0  0  0  0
  5  6  2  0  0  0  0
  5 11  1  0  0  0  0
  6  7  1  0  0  0  0
  7  8  2  0  0  0  0
  8  9  1  0  0  0  0
  9 10  2  0  0  0  0
  9 11  1  0  0  0  0
  1 12  1  0  0  0  0
 13 14  1  0  0  0  0
 14 15  1  0  0  0  0
 16 14  1  1  0  0  0
 14 19  1  0  0  0  0
 16 17  1  0  0  0  0
 16 18  1  0  0  0  0
 20 19  1  1  0  0  0
 20 21  1  0  0  0  0
 20 25  1  0  0  0  0
 21 22  1  0  0  0  0
 21 30  1  6  0  0  0
 22 23  1  0  0  0  0
 22 29  1  1  0  0  0
 23 24  1  0  0  0  0
 23 28  1  6  0  0  0
 24 25  1  0  0  0  0
 24 26  1  1  0  0  0
 26 27  1  0  0  0  0
  2 17  1  0  0  0  0
  3 18  1  0  0  0  0
  4 31  1  0  0  0  0
  8 32  1  0  0  0  0
 33 34  2  0  0  0  0
 33 38  1  0  0  0  0
 34 35  1  0  0  0  0
 35 36  2  0  0  0  0
 36 37  1  0  0  0  0
 36 39  1  0  0  0  0
 37 38  2  0  0  0  0
  7 37  1  0  0  0  0
M  END
> <score_KierFlex>
0.516345

$$$$
suggested molecule #182
 MOE2019            2D

 42 46  0  0  1  0  0  0  0  0999 V2000
    3.4992   -1.2833    0.0000 C   0  0  0  0  0  0  0  0  0  1  0  0
    4.9992   -1.2762    0.0000 C   0  0  0  0  0  0  0  0  0  2  0  0
    5.7430    0.0263    0.0000 C   0  0  0  0  0  0  0  0  0  3  0  0
    4.9869    1.3218    0.0000 C   0  0  0  0  0  0  0  0  0  4  0  0
    3.4870    1.3147    0.0000 C   0  0  0  0  0  0  0  0  0  5  0  0
    2.7431    0.0122    0.0000 C   0  0  0  0  0  0  0  0  0  6  0  0
    1.2431    0.0051    0.0000 C   0  0  0  0  0  0  0  0  0  7  0  0
    0.4870    1.3006    0.0000 C   0  0  0  0  0  0  0  0  0  8  0  0
    1.2309    2.6032    0.0000 C   0  0  0  0  0  0  0  0  0  9  0  0
    0.4748    3.8987    0.0000 O   0  0  0  0  0  0  0  0  0 10  0  0
    2.7309    2.6102    0.0000 O   0  0  0  0  0  0  0  0  0 11  0  0
    3.2016   -1.8043    0.0000 H   0  0  0  0  0  0  0  0  0  0  0  0
    7.9342   -3.8161    0.0000 C   0  0  0  0  0  0  0  0  0  0  0  0
    8.6781   -2.5136    0.0000 C   0  0  0  0  0  0  0  0  0  0  0  0
    9.4220   -1.2110    0.0000 C   0  0  0  0  0  0  0  0  0  0  0  0
    7.3755   -1.7697    0.0000 C   0  0  1  0  0  0  0  0  0  0  0  0
    6.0081   -2.3862    0.0000 C   0  0  0  0  0  0  0  0  0  0  0  0
    7.2117   -0.2787    0.0000 O   0  0  0  0  0  0  0  0  0  0  0  0
    9.9806   -3.2575    0.0000 O   0  0  0  0  0  0  0  0  0  0  0  0
   11.2761   -2.5013    0.0000 C   0  0  1  0  0  0  0  0  0  0  0  0
   12.5787   -3.2452    0.0000 C   0  0  1  0  0  0  0  0  0  0  0  0
   13.8742   -2.4891    0.0000 C   0  0  2  0  0  0  0  0  0  0  0  0
   13.8671   -0.9891    0.0000 C   0  0  1  0  0  0  0  0  0  0  0  0
   12.5646   -0.2453    0.0000 C   0  0  2  0  0  0  0  0  0  0  0  0
   11.2691   -1.0014    0.0000 O   0  0  0  0  0  0  0  0  0  0  0  0
   12.5575    1.2547    0.0000 C   0  0  0  0  0  0  0  0  0  0  0  0
   13.8530    2.0108    0.0000 O   0  0  0  0  0  0  0  0  0  0  0  0
   15.1626   -0.2330    0.0000 O   0  0  0  0  0  0  0  0  0  0  0  0
   15.1767   -3.2330    0.0000 O   0  0  0  0  0  0  0  0  0  0  0  0
   12.5857   -4.7452    0.0000 O   0  0  0  0  0  0  0  0  0  0  0  0
    5.7308    2.6244    0.0000 O   0  0  0  0  0  0  0  0  0  0  0  0
   -0.7130    1.2950    0.0000 H   0  0  0  0  0  0  0  0  0  0  0  0
   -3.2569   -0.0160    0.0000 C   0  0  0  0  0  0  0  0  0  0  0  0
   -1.7569   -0.0090    0.0000 O   0  0  0  0  0  0  0  0  0  0  0  0
   -1.0008   -1.3045    0.0000 C   0  0  0  0  0  0  0  0  0  0  0  0
    0.4992   -1.2974    0.0000 C   0  0  0  0  0  0  0  0  0  0  0  0
    1.2553   -2.5929    0.0000 C   0  0  0  0  0  0  0  0  0  0  0  0
    0.5114   -3.8955    0.0000 C   0  0  0  0  0  0  0  0  0  0  0  0
   -0.9886   -3.9025    0.0000 C   0  0  0  0  0  0  0  0  0  0  0  0
   -1.7447   -2.6070    0.0000 C   0  0  0  0  0  0  0  0  0  0  0  0
    2.7553   -2.5859    0.0000 O   0  0  0  0  0  0  0  0  0  0  0  0
    3.5114   -3.8813    0.0000 C   0  0  0  0  0  0  0  0  0  0  0  0
  1  2  2  0  0  0  0
  1  6  1  0  0  0  0
  2  3  1  0  0  0  0
  3  4  2  0  0  0  0
  4  5  1  0  0  0  0
  5  6  2  0  0  0  0
  5 11  1  0  0  0  0
  6  7  1  0  0  0  0
  7  8  2  0  0  0  0
  8  9  1  0  0  0  0
  9 10  2  0  0  0  0
  9 11  1  0  0  0  0
  1 12  1  0  0  0  0
 13 14  1  0  0  0  0
 14 15  1  0  0  0  0
 16 14  1  1  0  0  0
 14 19  1  0  0  0  0
 16 17  1  0  0  0  0
 16 18  1  0  0  0  0
 20 19  1  1  0  0  0
 20 21  1  0  0  0  0
 20 25  1  0  0  0  0
 21 22  1  0  0  0  0
 21 30  1  6  0  0  0
 22 23  1  0  0  0  0
 22 29  1  1  0  0  0
 23 24  1  0  0  0  0
 23 28  1  6  0  0  0
 24 25  1  0  0  0  0
 24 26  1  1  0  0  0
 26 27  1  0  0  0  0
  2 17  1  0  0  0  0
  3 18  1  0  0  0  0
  4 31  1  0  0  0  0
  8 32  1  0  0  0  0
 33 34  1  0  0  0  0
 34 35  1  0  0  0  0
 35 36  2  0  0  0  0
 35 40  1  0  0  0  0
 36 37  1  0  0  0  0
 37 38  2  0  0  0  0
 37 41  1  0  0  0  0
 38 39  1  0  0  0  0
 39 40  2  0  0  0  0
 41 42  1  0  0  0  0
  7 36  1  0  0  0  0
M  END
> <score_Kier3>
0.511462

$$$$
suggested molecule #183
 MOE2019            2D

 42 46  0  0  1  0  0  0  0  0999 V2000
    3.4992   -1.2833    0.0000 C   0  0  0  0  0  0  0  0  0  1  0  0
    4.9992   -1.2762    0.0000 C   0  0  0  0  0  0  0  0  0  2  0  0
    5.7430    0.0263    0.0000 C   0  0  0  0  0  0  0  0  0  3  0  0
    4.9869    1.3218    0.0000 C   0  0  0  0  0  0  0  0  0  4  0  0
    3.4870    1.3147    0.0000 C   0  0  0  0  0  0  0  0  0  5  0  0
    2.7431    0.0122    0.0000 C   0  0  0  0  0  0  0  0  0  6  0  0
    1.2431    0.0051    0.0000 C   0  0  0  0  0  0  0  0  0  7  0  0
    0.4870    1.3006    0.0000 C   0  0  0  0  0  0  0  0  0  8  0  0
    1.2309    2.6032    0.0000 C   0  0  0  0  0  0  0  0  0  9  0  0
    0.4748    3.8987    0.0000 O   0  0  0  0  0  0  0  0  0 10  0  0
    2.7309    2.6102    0.0000 O   0  0  0  0  0  0  0  0  0 11  0  0
    3.2016   -1.8043    0.0000 H   0  0  0  0  0  0  0  0  0  0  0  0
    7.9342   -3.8161    0.0000 C   0  0  0  0  0  0  0  0  0  0  0  0
    8.6781   -2.5136    0.0000 C   0  0  0  0  0  0  0  0  0  0  0  0
    9.4220   -1.2110    0.0000 C   0  0  0  0  0  0  0  0  0  0  0  0
    7.3755   -1.7697    0.0000 C   0  0  1  0  0  0  0  0  0  0  0  0
    6.0081   -2.3862    0.0000 C   0  0  0  0  0  0  0  0  0  0  0  0
    7.2117   -0.2787    0.0000 O   0  0  0  0  0  0  0  0  0  0  0  0
    9.9806   -3.2575    0.0000 O   0  0  0  0  0  0  0  0  0  0  0  0
   11.2761   -2.5013    0.0000 C   0  0  1  0  0  0  0  0  0  0  0  0
   12.5787   -3.2452    0.0000 C   0  0  1  0  0  0  0  0  0  0  0  0
   13.8742   -2.4891    0.0000 C   0  0  2  0  0  0  0  0  0  0  0  0
   13.8671   -0.9891    0.0000 C   0  0  1  0  0  0  0  0  0  0  0  0
   12.5646   -0.2453    0.0000 C   0  0  2  0  0  0  0  0  0  0  0  0
   11.2691   -1.0014    0.0000 O   0  0  0  0  0  0  0  0  0  0  0  0
   12.5575    1.2547    0.0000 C   0  0  0  0  0  0  0  0  0  0  0  0
   13.8530    2.0108    0.0000 O   0  0  0  0  0  0  0  0  0  0  0  0
   15.1626   -0.2330    0.0000 O   0  0  0  0  0  0  0  0  0  0  0  0
   15.1767   -3.2330    0.0000 O   0  0  0  0  0  0  0  0  0  0  0  0
   12.5857   -4.7452    0.0000 O   0  0  0  0  0  0  0  0  0  0  0  0
    5.7308    2.6244    0.0000 O   0  0  0  0  0  0  0  0  0  0  0  0
   -0.7130    1.2950    0.0000 H   0  0  0  0  0  0  0  0  0  0  0  0
   -3.2569   -0.0160    0.0000 C   0  0  0  0  0  0  0  0  0  0  0  0
   -1.7569   -0.0090    0.0000 O   0  0  0  0  0  0  0  0  0  0  0  0
   -1.0008   -1.3045    0.0000 C   0  0  0  0  0  0  0  0  0  0  0  0
    0.4992   -1.2974    0.0000 C   0  0  0  0  0  0  0  0  0  0  0  0
    1.2553   -2.5929    0.0000 C   0  0  0  0  0  0  0  0  0  0  0  0
    0.5114   -3.8955    0.0000 C   0  0  0  0  0  0  0  0  0  0  0  0
   -0.9886   -3.9025    0.0000 C   0  0  0  0  0  0  0  0  0  0  0  0
   -1.7447   -2.6070    0.0000 C   0  0  0  0  0  0  0  0  0  0  0  0
    2.7553   -2.5859    0.0000 O   0  0  0  0  0  0  0  0  0  0  0  0
    3.5114   -3.8813    0.0000 C   0  0  0  0  0  0  0  0  0  0  0  0
  1  2  2  0  0  0  0
  1  6  1  0  0  0  0
  2  3  1  0  0  0  0
  3  4  2  0  0  0  0
  4  5  1  0  0  0  0
  5  6  2  0  0  0  0
  5 11  1  0  0  0  0
  6  7  1  0  0  0  0
  7  8  2  0  0  0  0
  8  9  1  0  0  0  0
  9 10  2  0  0  0  0
  9 11  1  0  0  0  0
  1 12  1  0  0  0  0
 13 14  1  0  0  0  0
 14 15  1  0  0  0  0
 16 14  1  1  0  0  0
 14 19  1  0  0  0  0
 16 17  1  0  0  0  0
 16 18  1  0  0  0  0
 20 19  1  1  0  0  0
 20 21  1  0  0  0  0
 20 25  1  0  0  0  0
 21 22  1  0  0  0  0
 21 30  1  6  0  0  0
 22 23  1  0  0  0  0
 22 29  1  1  0  0  0
 23 24  1  0  0  0  0
 23 28  1  6  0  0  0
 24 25  1  0  0  0  0
 24 26  1  1  0  0  0
 26 27  1  0  0  0  0
  2 17  1  0  0  0  0
  3 18  1  0  0  0  0
  4 31  1  0  0  0  0
  8 32  1  0  0  0  0
 33 34  1  0  0  0  0
 34 35  1  0  0  0  0
 35 36  2  0  0  0  0
 35 40  1  0  0  0  0
 36 37  1  0  0  0  0
 37 38  2  0  0  0  0
 37 41  1  0  0  0  0
 38 39  1  0  0  0  0
 39 40  2  0  0  0  0
 41 42  1  0  0  0  0
  7 36  1  0  0  0  0
M  END
> <score_KierFlex>
0.516276

$$$$
suggested molecule #184
 MOE2019            2D

 40 44  0  0  1  0  0  0  0  0999 V2000
    3.4992   -1.2833    0.0000 C   0  0  0  0  0  0  0  0  0  1  0  0
    4.9992   -1.2762    0.0000 C   0  0  0  0  0  0  0  0  0  2  0  0
    5.7430    0.0263    0.0000 C   0  0  0  0  0  0  0  0  0  3  0  0
    4.9869    1.3218    0.0000 C   0  0  0  0  0  0  0  0  0  4  0  0
    3.4870    1.3147    0.0000 C   0  0  0  0  0  0  0  0  0  5  0  0
    2.7431    0.0122    0.0000 C   0  0  0  0  0  0  0  0  0  6  0  0
    1.2431    0.0051    0.0000 C   0  0  0  0  0  0  0  0  0  7  0  0
    0.4870    1.3006    0.0000 C   0  0  0  0  0  0  0  0  0  8  0  0
    1.2309    2.6032    0.0000 C   0  0  0  0  0  0  0  0  0  9  0  0
    0.4748    3.8987    0.0000 O   0  0  0  0  0  0  0  0  0 10  0  0
    2.7309    2.6102    0.0000 O   0  0  0  0  0  0  0  0  0 11  0  0
    2.9041   -2.3253    0.0000 H   0  0  0  0  0  0  0  0  0  0  0  0
    9.4220   -1.2110    0.0000 C   0  0  0  0  0  0  0  0  0  0  0  0
    8.6781   -2.5136    0.0000 C   0  0  0  0  0  0  0  0  0  0  0  0
    7.9342   -3.8161    0.0000 C   0  0  0  0  0  0  0  0  0  0  0  0
    7.3755   -1.7697    0.0000 C   0  0  1  0  0  0  0  0  0  0  0  0
    6.0081   -2.3862    0.0000 C   0  0  0  0  0  0  0  0  0  0  0  0
    7.2117   -0.2787    0.0000 O   0  0  0  0  0  0  0  0  0  0  0  0
    9.9806   -3.2575    0.0000 O   0  0  0  0  0  0  0  0  0  0  0  0
   11.2761   -2.5013    0.0000 C   0  0  1  0  0  0  0  0  0  0  0  0
   12.5787   -3.2452    0.0000 C   0  0  1  0  0  0  0  0  0  0  0  0
   13.8742   -2.4891    0.0000 C   0  0  2  0  0  0  0  0  0  0  0  0
   13.8671   -0.9891    0.0000 C   0  0  1  0  0  0  0  0  0  0  0  0
   12.5646   -0.2453    0.0000 C   0  0  2  0  0  0  0  0  0  0  0  0
   11.2691   -1.0014    0.0000 O   0  0  0  0  0  0  0  0  0  0  0  0
   12.5575    1.2547    0.0000 C   0  0  0  0  0  0  0  0  0  0  0  0
   13.8530    2.0108    0.0000 O   0  0  0  0  0  0  0  0  0  0  0  0
   15.1626   -0.2330    0.0000 O   0  0  0  0  0  0  0  0  0  0  0  0
   15.1767   -3.2330    0.0000 O   0  0  0  0  0  0  0  0  0  0  0  0
   12.5857   -4.7452    0.0000 O   0  0  0  0  0  0  0  0  0  0  0  0
    5.7308    2.6244    0.0000 O   0  0  0  0  0  0  0  0  0  0  0  0
   -0.7130    1.2950    0.0000 H   0  0  0  0  0  0  0  0  0  0  0  0
   -3.2569   -0.0160    0.0000 C   0  0  0  0  0  0  0  0  0  0  0  0
   -1.7569   -0.0090    0.0000 O   0  0  0  0  0  0  0  0  0  0  0  0
   -1.0008   -1.3045    0.0000 C   0  0  0  0  0  0  0  0  0  0  0  0
   -1.7447   -2.6070    0.0000 C   0  0  0  0  0  0  0  0  0  0  0  0
   -0.9886   -3.9025    0.0000 C   0  0  0  0  0  0  0  0  0  0  0  0
    0.5114   -3.8955    0.0000 C   0  0  0  0  0  0  0  0  0  0  0  0
    1.2553   -2.5929    0.0000 C   0  0  0  0  0  0  0  0  0  0  0  0
    0.4992   -1.2974    0.0000 C   0  0  0  0  0  0  0  0  0  0  0  0
  1  2  2  0  0  0  0
  1  6  1  0  0  0  0
  2  3  1  0  0  0  0
  3  4  2  0  0  0  0
  4  5  1  0  0  0  0
  5  6  2  0  0  0  0
  5 11  1  0  0  0  0
  6  7  1  0  0  0  0
  7  8  2  0  0  0  0
  8  9  1  0  0  0  0
  9 10  2  0  0  0  0
  9 11  1  0  0  0  0
  1 12  1  0  0  0  0
 13 14  1  0  0  0  0
 14 15  1  0  0  0  0
 16 14  1  1  0  0  0
 14 19  1  0  0  0  0
 16 17  1  0  0  0  0
 16 18  1  0  0  0  0
 20 19  1  1  0  0  0
 20 21  1  0  0  0  0
 20 25  1  0  0  0  0
 21 22  1  0  0  0  0
 21 30  1  6  0  0  0
 22 23  1  0  0  0  0
 22 29  1  1  0  0  0
 23 24  1  0  0  0  0
 23 28  1  6  0  0  0
 24 25  1  0  0  0  0
 24 26  1  1  0  0  0
 26 27  1  0  0  0  0
  2 17  1  0  0  0  0
  3 18  1  0  0  0  0
  4 31  1  0  0  0  0
  8 32  1  0  0  0  0
 33 34  1  0  0  0  0
 34 35  1  0  0  0  0
 35 36  1  0  0  0  0
 35 40  2  0  0  0  0
 36 37  2  0  0  0  0
 37 38  1  0  0  0  0
 38 39  2  0  0  0  0
 39 40  1  0  0  0  0
  7 40  1  0  0  0  0
M  END
> <score_Kier3>
0.511503

$$$$
suggested molecule #185
 MOE2019            2D

 40 44  0  0  1  0  0  0  0  0999 V2000
    3.4992   -1.2833    0.0000 C   0  0  0  0  0  0  0  0  0  1  0  0
    4.9992   -1.2762    0.0000 C   0  0  0  0  0  0  0  0  0  2  0  0
    5.7430    0.0263    0.0000 C   0  0  0  0  0  0  0  0  0  3  0  0
    4.9869    1.3218    0.0000 C   0  0  0  0  0  0  0  0  0  4  0  0
    3.4870    1.3147    0.0000 C   0  0  0  0  0  0  0  0  0  5  0  0
    2.7431    0.0122    0.0000 C   0  0  0  0  0  0  0  0  0  6  0  0
    1.2431    0.0051    0.0000 C   0  0  0  0  0  0  0  0  0  7  0  0
    0.4870    1.3006    0.0000 C   0  0  0  0  0  0  0  0  0  8  0  0
    1.2309    2.6032    0.0000 C   0  0  0  0  0  0  0  0  0  9  0  0
    0.4748    3.8987    0.0000 O   0  0  0  0  0  0  0  0  0 10  0  0
    2.7309    2.6102    0.0000 O   0  0  0  0  0  0  0  0  0 11  0  0
    2.9041   -2.3253    0.0000 H   0  0  0  0  0  0  0  0  0  0  0  0
    9.4220   -1.2110    0.0000 C   0  0  0  0  0  0  0  0  0  0  0  0
    8.6781   -2.5136    0.0000 C   0  0  0  0  0  0  0  0  0  0  0  0
    7.9342   -3.8161    0.0000 C   0  0  0  0  0  0  0  0  0  0  0  0
    7.3755   -1.7697    0.0000 C   0  0  1  0  0  0  0  0  0  0  0  0
    6.0081   -2.3862    0.0000 C   0  0  0  0  0  0  0  0  0  0  0  0
    7.2117   -0.2787    0.0000 O   0  0  0  0  0  0  0  0  0  0  0  0
    9.9806   -3.2575    0.0000 O   0  0  0  0  0  0  0  0  0  0  0  0
   11.2761   -2.5013    0.0000 C   0  0  1  0  0  0  0  0  0  0  0  0
   12.5787   -3.2452    0.0000 C   0  0  1  0  0  0  0  0  0  0  0  0
   13.8742   -2.4891    0.0000 C   0  0  2  0  0  0  0  0  0  0  0  0
   13.8671   -0.9891    0.0000 C   0  0  1  0  0  0  0  0  0  0  0  0
   12.5646   -0.2453    0.0000 C   0  0  2  0  0  0  0  0  0  0  0  0
   11.2691   -1.0014    0.0000 O   0  0  0  0  0  0  0  0  0  0  0  0
   12.5575    1.2547    0.0000 C   0  0  0  0  0  0  0  0  0  0  0  0
   13.8530    2.0108    0.0000 O   0  0  0  0  0  0  0  0  0  0  0  0
   15.1626   -0.2330    0.0000 O   0  0  0  0  0  0  0  0  0  0  0  0
   15.1767   -3.2330    0.0000 O   0  0  0  0  0  0  0  0  0  0  0  0
   12.5857   -4.7452    0.0000 O   0  0  0  0  0  0  0  0  0  0  0  0
    5.7308    2.6244    0.0000 O   0  0  0  0  0  0  0  0  0  0  0  0
   -0.7130    1.2950    0.0000 H   0  0  0  0  0  0  0  0  0  0  0  0
   -3.2569   -0.0160    0.0000 C   0  0  0  0  0  0  0  0  0  0  0  0
   -1.7569   -0.0090    0.0000 O   0  0  0  0  0  0  0  0  0  0  0  0
   -1.0008   -1.3045    0.0000 C   0  0  0  0  0  0  0  0  0  0  0  0
   -1.7447   -2.6070    0.0000 C   0  0  0  0  0  0  0  0  0  0  0  0
   -0.9886   -3.9025    0.0000 C   0  0  0  0  0  0  0  0  0  0  0  0
    0.5114   -3.8955    0.0000 C   0  0  0  0  0  0  0  0  0  0  0  0
    1.2553   -2.5929    0.0000 C   0  0  0  0  0  0  0  0  0  0  0  0
    0.4992   -1.2974    0.0000 C   0  0  0  0  0  0  0  0  0  0  0  0
  1  2  2  0  0  0  0
  1  6  1  0  0  0  0
  2  3  1  0  0  0  0
  3  4  2  0  0  0  0
  4  5  1  0  0  0  0
  5  6  2  0  0  0  0
  5 11  1  0  0  0  0
  6  7  1  0  0  0  0
  7  8  2  0  0  0  0
  8  9  1  0  0  0  0
  9 10  2  0  0  0  0
  9 11  1  0  0  0  0
  1 12  1  0  0  0  0
 13 14  1  0  0  0  0
 14 15  1  0  0  0  0
 16 14  1  1  0  0  0
 14 19  1  0  0  0  0
 16 17  1  0  0  0  0
 16 18  1  0  0  0  0
 20 19  1  1  0  0  0
 20 21  1  0  0  0  0
 20 25  1  0  0  0  0
 21 22  1  0  0  0  0
 21 30  1  6  0  0  0
 22 23  1  0  0  0  0
 22 29  1  1  0  0  0
 23 24  1  0  0  0  0
 23 28  1  6  0  0  0
 24 25  1  0  0  0  0
 24 26  1  1  0  0  0
 26 27  1  0  0  0  0
  2 17  1  0  0  0  0
  3 18  1  0  0  0  0
  4 31  1  0  0  0  0
  8 32  1  0  0  0  0
 33 34  1  0  0  0  0
 34 35  1  0  0  0  0
 35 36  1  0  0  0  0
 35 40  2  0  0  0  0
 36 37  2  0  0  0  0
 37 38  1  0  0  0  0
 38 39  2  0  0  0  0
 39 40  1  0  0  0  0
  7 40  1  0  0  0  0
M  END
> <score_KierA1>
0.51761

$$$$
suggested molecule #186
 MOE2019            2D

 40 44  0  0  1  0  0  0  0  0999 V2000
    3.4992   -1.2833    0.0000 C   0  0  0  0  0  0  0  0  0  1  0  0
    4.9992   -1.2762    0.0000 C   0  0  0  0  0  0  0  0  0  2  0  0
    5.7430    0.0263    0.0000 C   0  0  0  0  0  0  0  0  0  3  0  0
    4.9869    1.3218    0.0000 C   0  0  0  0  0  0  0  0  0  4  0  0
    3.4870    1.3147    0.0000 C   0  0  0  0  0  0  0  0  0  5  0  0
    2.7431    0.0122    0.0000 C   0  0  0  0  0  0  0  0  0  6  0  0
    1.2431    0.0051    0.0000 C   0  0  0  0  0  0  0  0  0  7  0  0
    0.4870    1.3006    0.0000 C   0  0  0  0  0  0  0  0  0  8  0  0
    1.2309    2.6032    0.0000 C   0  0  0  0  0  0  0  0  0  9  0  0
    0.4748    3.8987    0.0000 O   0  0  0  0  0  0  0  0  0 10  0  0
    2.7309    2.6102    0.0000 O   0  0  0  0  0  0  0  0  0 11  0  0
    2.9041   -2.3253    0.0000 H   0  0  0  0  0  0  0  0  0  0  0  0
    9.4220   -1.2110    0.0000 C   0  0  0  0  0  0  0  0  0  0  0  0
    8.6781   -2.5136    0.0000 C   0  0  0  0  0  0  0  0  0  0  0  0
    7.9342   -3.8161    0.0000 C   0  0  0  0  0  0  0  0  0  0  0  0
    7.3755   -1.7697    0.0000 C   0  0  1  0  0  0  0  0  0  0  0  0
    6.0081   -2.3862    0.0000 C   0  0  0  0  0  0  0  0  0  0  0  0
    7.2117   -0.2787    0.0000 O   0  0  0  0  0  0  0  0  0  0  0  0
    9.9806   -3.2575    0.0000 O   0  0  0  0  0  0  0  0  0  0  0  0
   11.2761   -2.5013    0.0000 C   0  0  1  0  0  0  0  0  0  0  0  0
   12.5787   -3.2452    0.0000 C   0  0  1  0  0  0  0  0  0  0  0  0
   13.8742   -2.4891    0.0000 C   0  0  2  0  0  0  0  0  0  0  0  0
   13.8671   -0.9891    0.0000 C   0  0  1  0  0  0  0  0  0  0  0  0
   12.5646   -0.2453    0.0000 C   0  0  2  0  0  0  0  0  0  0  0  0
   11.2691   -1.0014    0.0000 O   0  0  0  0  0  0  0  0  0  0  0  0
   12.5575    1.2547    0.0000 C   0  0  0  0  0  0  0  0  0  0  0  0
   13.8530    2.0108    0.0000 O   0  0  0  0  0  0  0  0  0  0  0  0
   15.1626   -0.2330    0.0000 O   0  0  0  0  0  0  0  0  0  0  0  0
   15.1767   -3.2330    0.0000 O   0  0  0  0  0  0  0  0  0  0  0  0
   12.5857   -4.7452    0.0000 O   0  0  0  0  0  0  0  0  0  0  0  0
    5.7308    2.6244    0.0000 O   0  0  0  0  0  0  0  0  0  0  0  0
   -0.7130    1.2950    0.0000 H   0  0  0  0  0  0  0  0  0  0  0  0
   -3.2569   -0.0160    0.0000 C   0  0  0  0  0  0  0  0  0  0  0  0
   -1.7569   -0.0090    0.0000 O   0  0  0  0  0  0  0  0  0  0  0  0
   -1.0008   -1.3045    0.0000 C   0  0  0  0  0  0  0  0  0  0  0  0
   -1.7447   -2.6070    0.0000 C   0  0  0  0  0  0  0  0  0  0  0  0
   -0.9886   -3.9025    0.0000 C   0  0  0  0  0  0  0  0  0  0  0  0
    0.5114   -3.8955    0.0000 C   0  0  0  0  0  0  0  0  0  0  0  0
    1.2553   -2.5929    0.0000 C   0  0  0  0  0  0  0  0  0  0  0  0
    0.4992   -1.2974    0.0000 C   0  0  0  0  0  0  0  0  0  0  0  0
  1  2  2  0  0  0  0
  1  6  1  0  0  0  0
  2  3  1  0  0  0  0
  3  4  2  0  0  0  0
  4  5  1  0  0  0  0
  5  6  2  0  0  0  0
  5 11  1  0  0  0  0
  6  7  1  0  0  0  0
  7  8  2  0  0  0  0
  8  9  1  0  0  0  0
  9 10  2  0  0  0  0
  9 11  1  0  0  0  0
  1 12  1  0  0  0  0
 13 14  1  0  0  0  0
 14 15  1  0  0  0  0
 16 14  1  1  0  0  0
 14 19  1  0  0  0  0
 16 17  1  0  0  0  0
 16 18  1  0  0  0  0
 20 19  1  1  0  0  0
 20 21  1  0  0  0  0
 20 25  1  0  0  0  0
 21 22  1  0  0  0  0
 21 30  1  6  0  0  0
 22 23  1  0  0  0  0
 22 29  1  1  0  0  0
 23 24  1  0  0  0  0
 23 28  1  6  0  0  0
 24 25  1  0  0  0  0
 24 26  1  1  0  0  0
 26 27  1  0  0  0  0
  2 17  1  0  0  0  0
  3 18  1  0  0  0  0
  4 31  1  0  0  0  0
  8 32  1  0  0  0  0
 33 34  1  0  0  0  0
 34 35  1  0  0  0  0
 35 36  1  0  0  0  0
 35 40  2  0  0  0  0
 36 37  2  0  0  0  0
 37 38  1  0  0  0  0
 38 39  2  0  0  0  0
 39 40  1  0  0  0  0
  7 40  1  0  0  0  0
M  END
> <score_KierA3>
0.512174

$$$$
suggested molecule #187
 MOE2019            2D

 40 44  0  0  1  0  0  0  0  0999 V2000
    3.4992   -1.2833    0.0000 C   0  0  0  0  0  0  0  0  0  1  0  0
    4.9992   -1.2762    0.0000 C   0  0  0  0  0  0  0  0  0  2  0  0
    5.7430    0.0263    0.0000 C   0  0  0  0  0  0  0  0  0  3  0  0
    4.9869    1.3218    0.0000 C   0  0  0  0  0  0  0  0  0  4  0  0
    3.4870    1.3147    0.0000 C   0  0  0  0  0  0  0  0  0  5  0  0
    2.7431    0.0122    0.0000 C   0  0  0  0  0  0  0  0  0  6  0  0
    1.2431    0.0051    0.0000 C   0  0  0  0  0  0  0  0  0  7  0  0
    0.4870    1.3006    0.0000 C   0  0  0  0  0  0  0  0  0  8  0  0
    1.2309    2.6032    0.0000 C   0  0  0  0  0  0  0  0  0  9  0  0
    0.4748    3.8987    0.0000 O   0  0  0  0  0  0  0  0  0 10  0  0
    2.7309    2.6102    0.0000 O   0  0  0  0  0  0  0  0  0 11  0  0
    2.9041   -2.3253    0.0000 H   0  0  0  0  0  0  0  0  0  0  0  0
    9.4220   -1.2110    0.0000 C   0  0  0  0  0  0  0  0  0  0  0  0
    8.6781   -2.5136    0.0000 C   0  0  0  0  0  0  0  0  0  0  0  0
    7.9342   -3.8161    0.0000 C   0  0  0  0  0  0  0  0  0  0  0  0
    7.3755   -1.7697    0.0000 C   0  0  1  0  0  0  0  0  0  0  0  0
    6.0081   -2.3862    0.0000 C   0  0  0  0  0  0  0  0  0  0  0  0
    7.2117   -0.2787    0.0000 O   0  0  0  0  0  0  0  0  0  0  0  0
    9.9806   -3.2575    0.0000 O   0  0  0  0  0  0  0  0  0  0  0  0
   11.2761   -2.5013    0.0000 C   0  0  1  0  0  0  0  0  0  0  0  0
   12.5787   -3.2452    0.0000 C   0  0  1  0  0  0  0  0  0  0  0  0
   13.8742   -2.4891    0.0000 C   0  0  2  0  0  0  0  0  0  0  0  0
   13.8671   -0.9891    0.0000 C   0  0  1  0  0  0  0  0  0  0  0  0
   12.5646   -0.2453    0.0000 C   0  0  2  0  0  0  0  0  0  0  0  0
   11.2691   -1.0014    0.0000 O   0  0  0  0  0  0  0  0  0  0  0  0
   12.5575    1.2547    0.0000 C   0  0  0  0  0  0  0  0  0  0  0  0
   13.8530    2.0108    0.0000 O   0  0  0  0  0  0  0  0  0  0  0  0
   15.1626   -0.2330    0.0000 O   0  0  0  0  0  0  0  0  0  0  0  0
   15.1767   -3.2330    0.0000 O   0  0  0  0  0  0  0  0  0  0  0  0
   12.5857   -4.7452    0.0000 O   0  0  0  0  0  0  0  0  0  0  0  0
    5.7308    2.6244    0.0000 O   0  0  0  0  0  0  0  0  0  0  0  0
   -0.7130    1.2950    0.0000 H   0  0  0  0  0  0  0  0  0  0  0  0
   -3.2569   -0.0160    0.0000 C   0  0  0  0  0  0  0  0  0  0  0  0
   -1.7569   -0.0090    0.0000 O   0  0  0  0  0  0  0  0  0  0  0  0
   -1.0008   -1.3045    0.0000 C   0  0  0  0  0  0  0  0  0  0  0  0
   -1.7447   -2.6070    0.0000 C   0  0  0  0  0  0  0  0  0  0  0  0
   -0.9886   -3.9025    0.0000 C   0  0  0  0  0  0  0  0  0  0  0  0
    0.5114   -3.8955    0.0000 C   0  0  0  0  0  0  0  0  0  0  0  0
    1.2553   -2.5929    0.0000 C   0  0  0  0  0  0  0  0  0  0  0  0
    0.4992   -1.2974    0.0000 C   0  0  0  0  0  0  0  0  0  0  0  0
  1  2  2  0  0  0  0
  1  6  1  0  0  0  0
  2  3  1  0  0  0  0
  3  4  2  0  0  0  0
  4  5  1  0  0  0  0
  5  6  2  0  0  0  0
  5 11  1  0  0  0  0
  6  7  1  0  0  0  0
  7  8  2  0  0  0  0
  8  9  1  0  0  0  0
  9 10  2  0  0  0  0
  9 11  1  0  0  0  0
  1 12  1  0  0  0  0
 13 14  1  0  0  0  0
 14 15  1  0  0  0  0
 16 14  1  1  0  0  0
 14 19  1  0  0  0  0
 16 17  1  0  0  0  0
 16 18  1  0  0  0  0
 20 19  1  1  0  0  0
 20 21  1  0  0  0  0
 20 25  1  0  0  0  0
 21 22  1  0  0  0  0
 21 30  1  6  0  0  0
 22 23  1  0  0  0  0
 22 29  1  1  0  0  0
 23 24  1  0  0  0  0
 23 28  1  6  0  0  0
 24 25  1  0  0  0  0
 24 26  1  1  0  0  0
 26 27  1  0  0  0  0
  2 17  1  0  0  0  0
  3 18  1  0  0  0  0
  4 31  1  0  0  0  0
  8 32  1  0  0  0  0
 33 34  1  0  0  0  0
 34 35  1  0  0  0  0
 35 36  1  0  0  0  0
 35 40  2  0  0  0  0
 36 37  2  0  0  0  0
 37 38  1  0  0  0  0
 38 39  2  0  0  0  0
 39 40  1  0  0  0  0
  7 40  1  0  0  0  0
M  END
> <score_KierFlex>
0.516345

$$$$
suggested molecule #188
 MOE2019            2D

 41 45  0  0  1  0  0  0  0  0999 V2000
    3.4992   -1.2833    0.0000 C   0  0  0  0  0  0  0  0  0  1  0  0
    4.9992   -1.2762    0.0000 C   0  0  0  0  0  0  0  0  0  2  0  0
    5.7430    0.0263    0.0000 C   0  0  0  0  0  0  0  0  0  3  0  0
    4.9869    1.3218    0.0000 C   0  0  0  0  0  0  0  0  0  4  0  0
    3.4870    1.3147    0.0000 C   0  0  0  0  0  0  0  0  0  5  0  0
    2.7431    0.0122    0.0000 C   0  0  0  0  0  0  0  0  0  6  0  0
    1.2431    0.0051    0.0000 C   0  0  0  0  0  0  0  0  0  7  0  0
    0.4870    1.3006    0.0000 C   0  0  0  0  0  0  0  0  0  8  0  0
    1.2309    2.6032    0.0000 C   0  0  0  0  0  0  0  0  0  9  0  0
    0.4748    3.8987    0.0000 O   0  0  0  0  0  0  0  0  0 10  0  0
    2.7309    2.6102    0.0000 O   0  0  0  0  0  0  0  0  0 11  0  0
    3.2016   -1.8043    0.0000 H   0  0  0  0  0  0  0  0  0  0  0  0
    9.4220   -1.2110    0.0000 C   0  0  0  0  0  0  0  0  0  0  0  0
    8.6781   -2.5136    0.0000 C   0  0  0  0  0  0  0  0  0  0  0  0
    7.9342   -3.8161    0.0000 C   0  0  0  0  0  0  0  0  0  0  0  0
    7.3755   -1.7697    0.0000 C   0  0  1  0  0  0  0  0  0  0  0  0
    6.0081   -2.3862    0.0000 C   0  0  0  0  0  0  0  0  0  0  0  0
    7.2117   -0.2787    0.0000 O   0  0  0  0  0  0  0  0  0  0  0  0
    9.9806   -3.2575    0.0000 O   0  0  0  0  0  0  0  0  0  0  0  0
   11.2761   -2.5013    0.0000 C   0  0  1  0  0  0  0  0  0  0  0  0
   12.5787   -3.2452    0.0000 C   0  0  1  0  0  0  0  0  0  0  0  0
   13.8742   -2.4891    0.0000 C   0  0  2  0  0  0  0  0  0  0  0  0
   13.8671   -0.9891    0.0000 C   0  0  1  0  0  0  0  0  0  0  0  0
   12.5646   -0.2453    0.0000 C   0  0  2  0  0  0  0  0  0  0  0  0
   11.2691   -1.0014    0.0000 O   0  0  0  0  0  0  0  0  0  0  0  0
   12.5575    1.2547    0.0000 C   0  0  0  0  0  0  0  0  0  0  0  0
   13.8530    2.0108    0.0000 O   0  0  0  0  0  0  0  0  0  0  0  0
   15.1626   -0.2330    0.0000 O   0  0  0  0  0  0  0  0  0  0  0  0
   15.1767   -3.2330    0.0000 O   0  0  0  0  0  0  0  0  0  0  0  0
   12.5857   -4.7452    0.0000 O   0  0  0  0  0  0  0  0  0  0  0  0
    5.7308    2.6244    0.0000 O   0  0  0  0  0  0  0  0  0  0  0  0
   -0.7130    1.2950    0.0000 H   0  0  0  0  0  0  0  0  0  0  0  0
   -3.2569   -0.0160    0.0000 C   0  0  0  0  0  0  0  0  0  0  0  0
   -1.7569   -0.0090    0.0000 O   0  0  0  0  0  0  0  0  0  0  0  0
   -1.0008   -1.3045    0.0000 C   0  0  0  0  0  0  0  0  0  0  0  0
   -1.7447   -2.6070    0.0000 C   0  0  0  0  0  0  0  0  0  0  0  0
   -0.9886   -3.9025    0.0000 C   0  0  0  0  0  0  0  0  0  0  0  0
    0.5114   -3.8955    0.0000 C   0  0  0  0  0  0  0  0  0  0  0  0
    1.2553   -2.5929    0.0000 C   0  0  0  0  0  0  0  0  0  0  0  0
    0.4992   -1.2974    0.0000 C   0  0  0  0  0  0  0  0  0  0  0  0
    2.7553   -2.5859    0.0000 O   0  0  0  0  0  0  0  0  0  0  0  0
  1  2  2  0  0  0  0
  1  6  1  0  0  0  0
  2  3  1  0  0  0  0
  3  4  2  0  0  0  0
  4  5  1  0  0  0  0
  5  6  2  0  0  0  0
  5 11  1  0  0  0  0
  6  7  1  0  0  0  0
  7  8  2  0  0  0  0
  8  9  1  0  0  0  0
  9 10  2  0  0  0  0
  9 11  1  0  0  0  0
  1 12  1  0  0  0  0
 13 14  1  0  0  0  0
 14 15  1  0  0  0  0
 16 14  1  1  0  0  0
 14 19  1  0  0  0  0
 16 17  1  0  0  0  0
 16 18  1  0  0  0  0
 20 19  1  1  0  0  0
 20 21  1  0  0  0  0
 20 25  1  0  0  0  0
 21 22  1  0  0  0  0
 21 30  1  6  0  0  0
 22 23  1  0  0  0  0
 22 29  1  1  0  0  0
 23 24  1  0  0  0  0
 23 28  1  6  0  0  0
 24 25  1  0  0  0  0
 24 26  1  1  0  0  0
 26 27  1  0  0  0  0
  2 17  1  0  0  0  0
  3 18  1  0  0  0  0
  4 31  1  0  0  0  0
  8 32  1  0  0  0  0
 33 34  1  0  0  0  0
 34 35  1  0  0  0  0
 35 36  1  0  0  0  0
 35 40  2  0  0  0  0
 36 37  2  0  0  0  0
 37 38  1  0  0  0  0
 38 39  2  0  0  0  0
 39 40  1  0  0  0  0
 39 41  1  0  0  0  0
  7 40  1  0  0  0  0
M  END
> <score_Kier3>
0.511461

$$$$
suggested molecule #189
 MOE2019            2D

 41 45  0  0  1  0  0  0  0  0999 V2000
    3.4992   -1.2833    0.0000 C   0  0  0  0  0  0  0  0  0  1  0  0
    4.9992   -1.2762    0.0000 C   0  0  0  0  0  0  0  0  0  2  0  0
    5.7430    0.0263    0.0000 C   0  0  0  0  0  0  0  0  0  3  0  0
    4.9869    1.3218    0.0000 C   0  0  0  0  0  0  0  0  0  4  0  0
    3.4870    1.3147    0.0000 C   0  0  0  0  0  0  0  0  0  5  0  0
    2.7431    0.0122    0.0000 C   0  0  0  0  0  0  0  0  0  6  0  0
    1.2431    0.0051    0.0000 C   0  0  0  0  0  0  0  0  0  7  0  0
    0.4870    1.3006    0.0000 C   0  0  0  0  0  0  0  0  0  8  0  0
    1.2309    2.6032    0.0000 C   0  0  0  0  0  0  0  0  0  9  0  0
    0.4748    3.8987    0.0000 O   0  0  0  0  0  0  0  0  0 10  0  0
    2.7309    2.6102    0.0000 O   0  0  0  0  0  0  0  0  0 11  0  0
    3.2016   -1.8043    0.0000 H   0  0  0  0  0  0  0  0  0  0  0  0
    9.4220   -1.2110    0.0000 C   0  0  0  0  0  0  0  0  0  0  0  0
    8.6781   -2.5136    0.0000 C   0  0  0  0  0  0  0  0  0  0  0  0
    7.9342   -3.8161    0.0000 C   0  0  0  0  0  0  0  0  0  0  0  0
    7.3755   -1.7697    0.0000 C   0  0  1  0  0  0  0  0  0  0  0  0
    6.0081   -2.3862    0.0000 C   0  0  0  0  0  0  0  0  0  0  0  0
    7.2117   -0.2787    0.0000 O   0  0  0  0  0  0  0  0  0  0  0  0
    9.9806   -3.2575    0.0000 O   0  0  0  0  0  0  0  0  0  0  0  0
   11.2761   -2.5013    0.0000 C   0  0  1  0  0  0  0  0  0  0  0  0
   12.5787   -3.2452    0.0000 C   0  0  1  0  0  0  0  0  0  0  0  0
   13.8742   -2.4891    0.0000 C   0  0  2  0  0  0  0  0  0  0  0  0
   13.8671   -0.9891    0.0000 C   0  0  1  0  0  0  0  0  0  0  0  0
   12.5646   -0.2453    0.0000 C   0  0  2  0  0  0  0  0  0  0  0  0
   11.2691   -1.0014    0.0000 O   0  0  0  0  0  0  0  0  0  0  0  0
   12.5575    1.2547    0.0000 C   0  0  0  0  0  0  0  0  0  0  0  0
   13.8530    2.0108    0.0000 O   0  0  0  0  0  0  0  0  0  0  0  0
   15.1626   -0.2330    0.0000 O   0  0  0  0  0  0  0  0  0  0  0  0
   15.1767   -3.2330    0.0000 O   0  0  0  0  0  0  0  0  0  0  0  0
   12.5857   -4.7452    0.0000 O   0  0  0  0  0  0  0  0  0  0  0  0
    5.7308    2.6244    0.0000 O   0  0  0  0  0  0  0  0  0  0  0  0
   -0.7130    1.2950    0.0000 H   0  0  0  0  0  0  0  0  0  0  0  0
   -3.2569   -0.0160    0.0000 C   0  0  0  0  0  0  0  0  0  0  0  0
   -1.7569   -0.0090    0.0000 O   0  0  0  0  0  0  0  0  0  0  0  0
   -1.0008   -1.3045    0.0000 C   0  0  0  0  0  0  0  0  0  0  0  0
   -1.7447   -2.6070    0.0000 C   0  0  0  0  0  0  0  0  0  0  0  0
   -0.9886   -3.9025    0.0000 C   0  0  0  0  0  0  0  0  0  0  0  0
    0.5114   -3.8955    0.0000 C   0  0  0  0  0  0  0  0  0  0  0  0
    1.2553   -2.5929    0.0000 C   0  0  0  0  0  0  0  0  0  0  0  0
    0.4992   -1.2974    0.0000 C   0  0  0  0  0  0  0  0  0  0  0  0
    2.7553   -2.5859    0.0000 O   0  0  0  0  0  0  0  0  0  0  0  0
  1  2  2  0  0  0  0
  1  6  1  0  0  0  0
  2  3  1  0  0  0  0
  3  4  2  0  0  0  0
  4  5  1  0  0  0  0
  5  6  2  0  0  0  0
  5 11  1  0  0  0  0
  6  7  1  0  0  0  0
  7  8  2  0  0  0  0
  8  9  1  0  0  0  0
  9 10  2  0  0  0  0
  9 11  1  0  0  0  0
  1 12  1  0  0  0  0
 13 14  1  0  0  0  0
 14 15  1  0  0  0  0
 16 14  1  1  0  0  0
 14 19  1  0  0  0  0
 16 17  1  0  0  0  0
 16 18  1  0  0  0  0
 20 19  1  1  0  0  0
 20 21  1  0  0  0  0
 20 25  1  0  0  0  0
 21 22  1  0  0  0  0
 21 30  1  6  0  0  0
 22 23  1  0  0  0  0
 22 29  1  1  0  0  0
 23 24  1  0  0  0  0
 23 28  1  6  0  0  0
 24 25  1  0  0  0  0
 24 26  1  1  0  0  0
 26 27  1  0  0  0  0
  2 17  1  0  0  0  0
  3 18  1  0  0  0  0
  4 31  1  0  0  0  0
  8 32  1  0  0  0  0
 33 34  1  0  0  0  0
 34 35  1  0  0  0  0
 35 36  1  0  0  0  0
 35 40  2  0  0  0  0
 36 37  2  0  0  0  0
 37 38  1  0  0  0  0
 38 39  2  0  0  0  0
 39 40  1  0  0  0  0
 39 41  1  0  0  0  0
  7 40  1  0  0  0  0
M  END
> <score_KierFlex>
0.516265

$$$$
suggested molecule #190
 MOE2019            2D

 42 46  0  0  1  0  0  0  0  0999 V2000
    3.4992   -1.2833    0.0000 C   0  0  0  0  0  0  0  0  0  1  0  0
    4.9992   -1.2762    0.0000 C   0  0  0  0  0  0  0  0  0  2  0  0
    5.7430    0.0263    0.0000 C   0  0  0  0  0  0  0  0  0  3  0  0
    4.9869    1.3218    0.0000 C   0  0  0  0  0  0  0  0  0  4  0  0
    3.4870    1.3147    0.0000 C   0  0  0  0  0  0  0  0  0  5  0  0
    2.7431    0.0122    0.0000 C   0  0  0  0  0  0  0  0  0  6  0  0
    1.2431    0.0051    0.0000 C   0  0  0  0  0  0  0  0  0  7  0  0
    0.4870    1.3006    0.0000 C   0  0  0  0  0  0  0  0  0  8  0  0
    1.2309    2.6032    0.0000 C   0  0  0  0  0  0  0  0  0  9  0  0
    0.4748    3.8987    0.0000 O   0  0  0  0  0  0  0  0  0 10  0  0
    2.7309    2.6102    0.0000 O   0  0  0  0  0  0  0  0  0 11  0  0
    2.9041   -2.3253    0.0000 H   0  0  0  0  0  0  0  0  0  0  0  0
    9.4220   -1.2110    0.0000 C   0  0  0  0  0  0  0  0  0  0  0  0
    8.6781   -2.5136    0.0000 C   0  0  0  0  0  0  0  0  0  0  0  0
    7.9342   -3.8161    0.0000 C   0  0  0  0  0  0  0  0  0  0  0  0
    7.3755   -1.7697    0.0000 C   0  0  1  0  0  0  0  0  0  0  0  0
    6.0081   -2.3862    0.0000 C   0  0  0  0  0  0  0  0  0  0  0  0
    7.2117   -0.2787    0.0000 O   0  0  0  0  0  0  0  0  0  0  0  0
    9.9806   -3.2575    0.0000 O   0  0  0  0  0  0  0  0  0  0  0  0
   11.2761   -2.5013    0.0000 C   0  0  1  0  0  0  0  0  0  0  0  0
   12.5787   -3.2452    0.0000 C   0  0  1  0  0  0  0  0  0  0  0  0
   13.8742   -2.4891    0.0000 C   0  0  2  0  0  0  0  0  0  0  0  0
   13.8671   -0.9891    0.0000 C   0  0  1  0  0  0  0  0  0  0  0  0
   12.5646   -0.2453    0.0000 C   0  0  2  0  0  0  0  0  0  0  0  0
   11.2691   -1.0014    0.0000 O   0  0  0  0  0  0  0  0  0  0  0  0
   12.5575    1.2547    0.0000 C   0  0  0  0  0  0  0  0  0  0  0  0
   13.8530    2.0108    0.0000 O   0  0  0  0  0  0  0  0  0  0  0  0
   15.1626   -0.2330    0.0000 O   0  0  0  0  0  0  0  0  0  0  0  0
   15.1767   -3.2330    0.0000 O   0  0  0  0  0  0  0  0  0  0  0  0
   12.5857   -4.7452    0.0000 O   0  0  0  0  0  0  0  0  0  0  0  0
    5.7308    2.6244    0.0000 O   0  0  0  0  0  0  0  0  0  0  0  0
   -0.7130    1.2950    0.0000 H   0  0  0  0  0  0  0  0  0  0  0  0
   -3.2324   -5.2121    0.0000 C   0  0  0  0  0  0  0  0  0  0  0  0
   -1.7324   -5.2051    0.0000 O   0  0  0  0  0  0  0  0  0  0  0  0
   -0.9886   -3.9025    0.0000 C   0  0  0  0  0  0  0  0  0  0  0  0
   -1.7447   -2.6070    0.0000 C   0  0  0  0  0  0  0  0  0  0  0  0
   -1.0008   -1.3045    0.0000 C   0  0  0  0  0  0  0  0  0  0  0  0
    0.4992   -1.2974    0.0000 C   0  0  0  0  0  0  0  0  0  0  0  0
    1.2553   -2.5929    0.0000 C   0  0  0  0  0  0  0  0  0  0  0  0
    0.5114   -3.8955    0.0000 C   0  0  0  0  0  0  0  0  0  0  0  0
   -1.7569   -0.0090    0.0000 O   0  0  0  0  0  0  0  0  0  0  0  0
   -3.2569   -0.0160    0.0000 C   0  0  0  0  0  0  0  0  0  0  0  0
  1  2  2  0  0  0  0
  1  6  1  0  0  0  0
  2  3  1  0  0  0  0
  3  4  2  0  0  0  0
  4  5  1  0  0  0  0
  5  6  2  0  0  0  0
  5 11  1  0  0  0  0
  6  7  1  0  0  0  0
  7  8  2  0  0  0  0
  8  9  1  0  0  0  0
  9 10  2  0  0  0  0
  9 11  1  0  0  0  0
  1 12  1  0  0  0  0
 13 14  1  0  0  0  0
 14 15  1  0  0  0  0
 16 14  1  1  0  0  0
 14 19  1  0  0  0  0
 16 17  1  0  0  0  0
 16 18  1  0  0  0  0
 20 19  1  1  0  0  0
 20 21  1  0  0  0  0
 20 25  1  0  0  0  0
 21 22  1  0  0  0  0
 21 30  1  6  0  0  0
 22 23  1  0  0  0  0
 22 29  1  1  0  0  0
 23 24  1  0  0  0  0
 23 28  1  6  0  0  0
 24 25  1  0  0  0  0
 24 26  1  1  0  0  0
 26 27  1  0  0  0  0
  2 17  1  0  0  0  0
  3 18  1  0  0  0  0
  4 31  1  0  0  0  0
  8 32  1  0  0  0  0
 33 34  1  0  0  0  0
 34 35  1  0  0  0  0
 35 36  1  0  0  0  0
 35 40  2  0  0  0  0
 36 37  2  0  0  0  0
 37 38  1  0  0  0  0
 37 41  1  0  0  0  0
 38 39  2  0  0  0  0
 39 40  1  0  0  0  0
 41 42  1  0  0  0  0
  7 38  1  0  0  0  0
M  END
> <score_Kier3>
0.511456

$$$$
suggested molecule #191
 MOE2019            2D

 42 46  0  0  1  0  0  0  0  0999 V2000
    3.4992   -1.2833    0.0000 C   0  0  0  0  0  0  0  0  0  1  0  0
    4.9992   -1.2762    0.0000 C   0  0  0  0  0  0  0  0  0  2  0  0
    5.7430    0.0263    0.0000 C   0  0  0  0  0  0  0  0  0  3  0  0
    4.9869    1.3218    0.0000 C   0  0  0  0  0  0  0  0  0  4  0  0
    3.4870    1.3147    0.0000 C   0  0  0  0  0  0  0  0  0  5  0  0
    2.7431    0.0122    0.0000 C   0  0  0  0  0  0  0  0  0  6  0  0
    1.2431    0.0051    0.0000 C   0  0  0  0  0  0  0  0  0  7  0  0
    0.4870    1.3006    0.0000 C   0  0  0  0  0  0  0  0  0  8  0  0
    1.2309    2.6032    0.0000 C   0  0  0  0  0  0  0  0  0  9  0  0
    0.4748    3.8987    0.0000 O   0  0  0  0  0  0  0  0  0 10  0  0
    2.7309    2.6102    0.0000 O   0  0  0  0  0  0  0  0  0 11  0  0
    2.9041   -2.3253    0.0000 H   0  0  0  0  0  0  0  0  0  0  0  0
    9.4220   -1.2110    0.0000 C   0  0  0  0  0  0  0  0  0  0  0  0
    8.6781   -2.5136    0.0000 C   0  0  0  0  0  0  0  0  0  0  0  0
    7.9342   -3.8161    0.0000 C   0  0  0  0  0  0  0  0  0  0  0  0
    7.3755   -1.7697    0.0000 C   0  0  1  0  0  0  0  0  0  0  0  0
    6.0081   -2.3862    0.0000 C   0  0  0  0  0  0  0  0  0  0  0  0
    7.2117   -0.2787    0.0000 O   0  0  0  0  0  0  0  0  0  0  0  0
    9.9806   -3.2575    0.0000 O   0  0  0  0  0  0  0  0  0  0  0  0
   11.2761   -2.5013    0.0000 C   0  0  1  0  0  0  0  0  0  0  0  0
   12.5787   -3.2452    0.0000 C   0  0  1  0  0  0  0  0  0  0  0  0
   13.8742   -2.4891    0.0000 C   0  0  2  0  0  0  0  0  0  0  0  0
   13.8671   -0.9891    0.0000 C   0  0  1  0  0  0  0  0  0  0  0  0
   12.5646   -0.2453    0.0000 C   0  0  2  0  0  0  0  0  0  0  0  0
   11.2691   -1.0014    0.0000 O   0  0  0  0  0  0  0  0  0  0  0  0
   12.5575    1.2547    0.0000 C   0  0  0  0  0  0  0  0  0  0  0  0
   13.8530    2.0108    0.0000 O   0  0  0  0  0  0  0  0  0  0  0  0
   15.1626   -0.2330    0.0000 O   0  0  0  0  0  0  0  0  0  0  0  0
   15.1767   -3.2330    0.0000 O   0  0  0  0  0  0  0  0  0  0  0  0
   12.5857   -4.7452    0.0000 O   0  0  0  0  0  0  0  0  0  0  0  0
    5.7308    2.6244    0.0000 O   0  0  0  0  0  0  0  0  0  0  0  0
   -0.7130    1.2950    0.0000 H   0  0  0  0  0  0  0  0  0  0  0  0
   -3.2324   -5.2121    0.0000 C   0  0  0  0  0  0  0  0  0  0  0  0
   -1.7324   -5.2051    0.0000 O   0  0  0  0  0  0  0  0  0  0  0  0
   -0.9886   -3.9025    0.0000 C   0  0  0  0  0  0  0  0  0  0  0  0
   -1.7447   -2.6070    0.0000 C   0  0  0  0  0  0  0  0  0  0  0  0
   -1.0008   -1.3045    0.0000 C   0  0  0  0  0  0  0  0  0  0  0  0
    0.4992   -1.2974    0.0000 C   0  0  0  0  0  0  0  0  0  0  0  0
    1.2553   -2.5929    0.0000 C   0  0  0  0  0  0  0  0  0  0  0  0
    0.5114   -3.8955    0.0000 C   0  0  0  0  0  0  0  0  0  0  0  0
   -1.7569   -0.0090    0.0000 O   0  0  0  0  0  0  0  0  0  0  0  0
   -3.2569   -0.0160    0.0000 C   0  0  0  0  0  0  0  0  0  0  0  0
  1  2  2  0  0  0  0
  1  6  1  0  0  0  0
  2  3  1  0  0  0  0
  3  4  2  0  0  0  0
  4  5  1  0  0  0  0
  5  6  2  0  0  0  0
  5 11  1  0  0  0  0
  6  7  1  0  0  0  0
  7  8  2  0  0  0  0
  8  9  1  0  0  0  0
  9 10  2  0  0  0  0
  9 11  1  0  0  0  0
  1 12  1  0  0  0  0
 13 14  1  0  0  0  0
 14 15  1  0  0  0  0
 16 14  1  1  0  0  0
 14 19  1  0  0  0  0
 16 17  1  0  0  0  0
 16 18  1  0  0  0  0
 20 19  1  1  0  0  0
 20 21  1  0  0  0  0
 20 25  1  0  0  0  0
 21 22  1  0  0  0  0
 21 30  1  6  0  0  0
 22 23  1  0  0  0  0
 22 29  1  1  0  0  0
 23 24  1  0  0  0  0
 23 28  1  6  0  0  0
 24 25  1  0  0  0  0
 24 26  1  1  0  0  0
 26 27  1  0  0  0  0
  2 17  1  0  0  0  0
  3 18  1  0  0  0  0
  4 31  1  0  0  0  0
  8 32  1  0  0  0  0
 33 34  1  0  0  0  0
 34 35  1  0  0  0  0
 35 36  1  0  0  0  0
 35 40  2  0  0  0  0
 36 37  2  0  0  0  0
 37 38  1  0  0  0  0
 37 41  1  0  0  0  0
 38 39  2  0  0  0  0
 39 40  1  0  0  0  0
 41 42  1  0  0  0  0
  7 38  1  0  0  0  0
M  END
> <score_KierFlex>
0.51627

$$$$
suggested molecule #192
 MOE2019            2D

 40 44  0  0  1  0  0  0  0  0999 V2000
    3.4992   -1.2833    0.0000 C   0  0  0  0  0  0  0  0  0  1  0  0
    4.9992   -1.2762    0.0000 C   0  0  0  0  0  0  0  0  0  2  0  0
    5.7430    0.0263    0.0000 C   0  0  0  0  0  0  0  0  0  3  0  0
    4.9869    1.3218    0.0000 C   0  0  0  0  0  0  0  0  0  4  0  0
    3.4870    1.3147    0.0000 C   0  0  0  0  0  0  0  0  0  5  0  0
    2.7431    0.0122    0.0000 C   0  0  0  0  0  0  0  0  0  6  0  0
    1.2431    0.0051    0.0000 C   0  0  0  0  0  0  0  0  0  7  0  0
    0.4870    1.3006    0.0000 C   0  0  0  0  0  0  0  0  0  8  0  0
    1.2309    2.6032    0.0000 C   0  0  0  0  0  0  0  0  0  9  0  0
    0.4748    3.8987    0.0000 O   0  0  0  0  0  0  0  0  0 10  0  0
    2.7309    2.6102    0.0000 O   0  0  0  0  0  0  0  0  0 11  0  0
    2.9041   -2.3253    0.0000 H   0  0  0  0  0  0  0  0  0  0  0  0
    7.9342   -3.8161    0.0000 C   0  0  0  0  0  0  0  0  0  0  0  0
    8.6781   -2.5136    0.0000 C   0  0  0  0  0  0  0  0  0  0  0  0
    9.4220   -1.2110    0.0000 C   0  0  0  0  0  0  0  0  0  0  0  0
    7.3755   -1.7697    0.0000 C   0  0  1  0  0  0  0  0  0  0  0  0
    6.0081   -2.3862    0.0000 C   0  0  0  0  0  0  0  0  0  0  0  0
    7.2117   -0.2787    0.0000 O   0  0  0  0  0  0  0  0  0  0  0  0
    9.9806   -3.2575    0.0000 O   0  0  0  0  0  0  0  0  0  0  0  0
   11.2761   -2.5013    0.0000 C   0  0  1  0  0  0  0  0  0  0  0  0
   12.5787   -3.2452    0.0000 C   0  0  1  0  0  0  0  0  0  0  0  0
   13.8742   -2.4891    0.0000 C   0  0  2  0  0  0  0  0  0  0  0  0
   13.8671   -0.9891    0.0000 C   0  0  1  0  0  0  0  0  0  0  0  0
   12.5646   -0.2453    0.0000 C   0  0  2  0  0  0  0  0  0  0  0  0
   11.2691   -1.0014    0.0000 O   0  0  0  0  0  0  0  0  0  0  0  0
   12.5575    1.2547    0.0000 C   0  0  0  0  0  0  0  0  0  0  0  0
   13.8530    2.0108    0.0000 O   0  0  0  0  0  0  0  0  0  0  0  0
   15.1626   -0.2330    0.0000 O   0  0  0  0  0  0  0  0  0  0  0  0
   15.1767   -3.2330    0.0000 O   0  0  0  0  0  0  0  0  0  0  0  0
   12.5857   -4.7452    0.0000 O   0  0  0  0  0  0  0  0  0  0  0  0
    5.7308    2.6244    0.0000 O   0  0  0  0  0  0  0  0  0  0  0  0
   -0.7130    1.2950    0.0000 H   0  0  0  0  0  0  0  0  0  0  0  0
    0.4992   -1.2974    0.0000 C   0  0  0  0  0  0  0  0  0  0  0  0
   -1.0008   -1.3045    0.0000 C   0  0  0  0  0  0  0  0  0  0  0  0
   -1.7447   -2.6070    0.0000 C   0  0  0  0  0  0  0  0  0  0  0  0
   -0.9886   -3.9025    0.0000 C   0  0  0  0  0  0  0  0  0  0  0  0
    0.5114   -3.8955    0.0000 C   0  0  0  0  0  0  0  0  0  0  0  0
    1.2553   -2.5929    0.0000 C   0  0  0  0  0  0  0  0  0  0  0  0
   -3.2446   -2.6141    0.0000 O   0  0  0  0  0  0  0  0  0  0  0  0
   -3.9885   -3.9166    0.0000 C   0  0  0  0  0  0  0  0  0  0  0  0
  1  2  2  0  0  0  0
  1  6  1  0  0  0  0
  2  3  1  0  0  0  0
  3  4  2  0  0  0  0
  4  5  1  0  0  0  0
  5  6  2  0  0  0  0
  5 11  1  0  0  0  0
  6  7  1  0  0  0  0
  7  8  2  0  0  0  0
  8  9  1  0  0  0  0
  9 10  2  0  0  0  0
  9 11  1  0  0  0  0
  1 12  1  0  0  0  0
 13 14  1  0  0  0  0
 14 15  1  0  0  0  0
 16 14  1  1  0  0  0
 14 19  1  0  0  0  0
 16 17  1  0  0  0  0
 16 18  1  0  0  0  0
 20 19  1  1  0  0  0
 20 21  1  0  0  0  0
 20 25  1  0  0  0  0
 21 22  1  0  0  0  0
 21 30  1  6  0  0  0
 22 23  1  0  0  0  0
 22 29  1  1  0  0  0
 23 24  1  0  0  0  0
 23 28  1  6  0  0  0
 24 25  1  0  0  0  0
 24 26  1  1  0  0  0
 26 27  1  0  0  0  0
  2 17  1  0  0  0  0
  3 18  1  0  0  0  0
  4 31  1  0  0  0  0
  8 32  1  0  0  0  0
 33 34  2  0  0  0  0
 33 38  1  0  0  0  0
 34 35  1  0  0  0  0
 35 36  2  0  0  0  0
 35 39  1  0  0  0  0
 36 37  1  0  0  0  0
 37 38  2  0  0  0  0
 39 40  1  0  0  0  0
  7 33  1  0  0  0  0
M  END
> <score_Kier3>
0.511471

$$$$
suggested molecule #193
 MOE2019            2D

 40 44  0  0  1  0  0  0  0  0999 V2000
    3.4992   -1.2833    0.0000 C   0  0  0  0  0  0  0  0  0  1  0  0
    4.9992   -1.2762    0.0000 C   0  0  0  0  0  0  0  0  0  2  0  0
    5.7430    0.0263    0.0000 C   0  0  0  0  0  0  0  0  0  3  0  0
    4.9869    1.3218    0.0000 C   0  0  0  0  0  0  0  0  0  4  0  0
    3.4870    1.3147    0.0000 C   0  0  0  0  0  0  0  0  0  5  0  0
    2.7431    0.0122    0.0000 C   0  0  0  0  0  0  0  0  0  6  0  0
    1.2431    0.0051    0.0000 C   0  0  0  0  0  0  0  0  0  7  0  0
    0.4870    1.3006    0.0000 C   0  0  0  0  0  0  0  0  0  8  0  0
    1.2309    2.6032    0.0000 C   0  0  0  0  0  0  0  0  0  9  0  0
    0.4748    3.8987    0.0000 O   0  0  0  0  0  0  0  0  0 10  0  0
    2.7309    2.6102    0.0000 O   0  0  0  0  0  0  0  0  0 11  0  0
    2.9041   -2.3253    0.0000 H   0  0  0  0  0  0  0  0  0  0  0  0
    7.9342   -3.8161    0.0000 C   0  0  0  0  0  0  0  0  0  0  0  0
    8.6781   -2.5136    0.0000 C   0  0  0  0  0  0  0  0  0  0  0  0
    9.4220   -1.2110    0.0000 C   0  0  0  0  0  0  0  0  0  0  0  0
    7.3755   -1.7697    0.0000 C   0  0  1  0  0  0  0  0  0  0  0  0
    6.0081   -2.3862    0.0000 C   0  0  0  0  0  0  0  0  0  0  0  0
    7.2117   -0.2787    0.0000 O   0  0  0  0  0  0  0  0  0  0  0  0
    9.9806   -3.2575    0.0000 O   0  0  0  0  0  0  0  0  0  0  0  0
   11.2761   -2.5013    0.0000 C   0  0  1  0  0  0  0  0  0  0  0  0
   12.5787   -3.2452    0.0000 C   0  0  1  0  0  0  0  0  0  0  0  0
   13.8742   -2.4891    0.0000 C   0  0  2  0  0  0  0  0  0  0  0  0
   13.8671   -0.9891    0.0000 C   0  0  1  0  0  0  0  0  0  0  0  0
   12.5646   -0.2453    0.0000 C   0  0  2  0  0  0  0  0  0  0  0  0
   11.2691   -1.0014    0.0000 O   0  0  0  0  0  0  0  0  0  0  0  0
   12.5575    1.2547    0.0000 C   0  0  0  0  0  0  0  0  0  0  0  0
   13.8530    2.0108    0.0000 O   0  0  0  0  0  0  0  0  0  0  0  0
   15.1626   -0.2330    0.0000 O   0  0  0  0  0  0  0  0  0  0  0  0
   15.1767   -3.2330    0.0000 O   0  0  0  0  0  0  0  0  0  0  0  0
   12.5857   -4.7452    0.0000 O   0  0  0  0  0  0  0  0  0  0  0  0
    5.7308    2.6244    0.0000 O   0  0  0  0  0  0  0  0  0  0  0  0
   -0.7130    1.2950    0.0000 H   0  0  0  0  0  0  0  0  0  0  0  0
    0.4992   -1.2974    0.0000 C   0  0  0  0  0  0  0  0  0  0  0  0
   -1.0008   -1.3045    0.0000 C   0  0  0  0  0  0  0  0  0  0  0  0
   -1.7447   -2.6070    0.0000 C   0  0  0  0  0  0  0  0  0  0  0  0
   -0.9886   -3.9025    0.0000 C   0  0  0  0  0  0  0  0  0  0  0  0
    0.5114   -3.8955    0.0000 C   0  0  0  0  0  0  0  0  0  0  0  0
    1.2553   -2.5929    0.0000 C   0  0  0  0  0  0  0  0  0  0  0  0
   -3.2446   -2.6141    0.0000 O   0  0  0  0  0  0  0  0  0  0  0  0
   -3.9885   -3.9166    0.0000 C   0  0  0  0  0  0  0  0  0  0  0  0
  1  2  2  0  0  0  0
  1  6  1  0  0  0  0
  2  3  1  0  0  0  0
  3  4  2  0  0  0  0
  4  5  1  0  0  0  0
  5  6  2  0  0  0  0
  5 11  1  0  0  0  0
  6  7  1  0  0  0  0
  7  8  2  0  0  0  0
  8  9  1  0  0  0  0
  9 10  2  0  0  0  0
  9 11  1  0  0  0  0
  1 12  1  0  0  0  0
 13 14  1  0  0  0  0
 14 15  1  0  0  0  0
 16 14  1  1  0  0  0
 14 19  1  0  0  0  0
 16 17  1  0  0  0  0
 16 18  1  0  0  0  0
 20 19  1  1  0  0  0
 20 21  1  0  0  0  0
 20 25  1  0  0  0  0
 21 22  1  0  0  0  0
 21 30  1  6  0  0  0
 22 23  1  0  0  0  0
 22 29  1  1  0  0  0
 23 24  1  0  0  0  0
 23 28  1  6  0  0  0
 24 25  1  0  0  0  0
 24 26  1  1  0  0  0
 26 27  1  0  0  0  0
  2 17  1  0  0  0  0
  3 18  1  0  0  0  0
  4 31  1  0  0  0  0
  8 32  1  0  0  0  0
 33 34  2  0  0  0  0
 33 38  1  0  0  0  0
 34 35  1  0  0  0  0
 35 36  2  0  0  0  0
 35 39  1  0  0  0  0
 36 37  1  0  0  0  0
 37 38  2  0  0  0  0
 39 40  1  0  0  0  0
  7 33  1  0  0  0  0
M  END
> <score_KierA3>
0.512133

$$$$
suggested molecule #194
 MOE2019            2D

 40 44  0  0  1  0  0  0  0  0999 V2000
    3.4992   -1.2833    0.0000 C   0  0  0  0  0  0  0  0  0  1  0  0
    4.9992   -1.2762    0.0000 C   0  0  0  0  0  0  0  0  0  2  0  0
    5.7430    0.0263    0.0000 C   0  0  0  0  0  0  0  0  0  3  0  0
    4.9869    1.3218    0.0000 C   0  0  0  0  0  0  0  0  0  4  0  0
    3.4870    1.3147    0.0000 C   0  0  0  0  0  0  0  0  0  5  0  0
    2.7431    0.0122    0.0000 C   0  0  0  0  0  0  0  0  0  6  0  0
    1.2431    0.0051    0.0000 C   0  0  0  0  0  0  0  0  0  7  0  0
    0.4870    1.3006    0.0000 C   0  0  0  0  0  0  0  0  0  8  0  0
    1.2309    2.6032    0.0000 C   0  0  0  0  0  0  0  0  0  9  0  0
    0.4748    3.8987    0.0000 O   0  0  0  0  0  0  0  0  0 10  0  0
    2.7309    2.6102    0.0000 O   0  0  0  0  0  0  0  0  0 11  0  0
    2.9041   -2.3253    0.0000 H   0  0  0  0  0  0  0  0  0  0  0  0
    7.9342   -3.8161    0.0000 C   0  0  0  0  0  0  0  0  0  0  0  0
    8.6781   -2.5136    0.0000 C   0  0  0  0  0  0  0  0  0  0  0  0
    9.4220   -1.2110    0.0000 C   0  0  0  0  0  0  0  0  0  0  0  0
    7.3755   -1.7697    0.0000 C   0  0  1  0  0  0  0  0  0  0  0  0
    6.0081   -2.3862    0.0000 C   0  0  0  0  0  0  0  0  0  0  0  0
    7.2117   -0.2787    0.0000 O   0  0  0  0  0  0  0  0  0  0  0  0
    9.9806   -3.2575    0.0000 O   0  0  0  0  0  0  0  0  0  0  0  0
   11.2761   -2.5013    0.0000 C   0  0  1  0  0  0  0  0  0  0  0  0
   12.5787   -3.2452    0.0000 C   0  0  1  0  0  0  0  0  0  0  0  0
   13.8742   -2.4891    0.0000 C   0  0  2  0  0  0  0  0  0  0  0  0
   13.8671   -0.9891    0.0000 C   0  0  1  0  0  0  0  0  0  0  0  0
   12.5646   -0.2453    0.0000 C   0  0  2  0  0  0  0  0  0  0  0  0
   11.2691   -1.0014    0.0000 O   0  0  0  0  0  0  0  0  0  0  0  0
   12.5575    1.2547    0.0000 C   0  0  0  0  0  0  0  0  0  0  0  0
   13.8530    2.0108    0.0000 O   0  0  0  0  0  0  0  0  0  0  0  0
   15.1626   -0.2330    0.0000 O   0  0  0  0  0  0  0  0  0  0  0  0
   15.1767   -3.2330    0.0000 O   0  0  0  0  0  0  0  0  0  0  0  0
   12.5857   -4.7452    0.0000 O   0  0  0  0  0  0  0  0  0  0  0  0
    5.7308    2.6244    0.0000 O   0  0  0  0  0  0  0  0  0  0  0  0
   -0.7130    1.2950    0.0000 H   0  0  0  0  0  0  0  0  0  0  0  0
    0.4992   -1.2974    0.0000 C   0  0  0  0  0  0  0  0  0  0  0  0
   -1.0008   -1.3045    0.0000 C   0  0  0  0  0  0  0  0  0  0  0  0
   -1.7447   -2.6070    0.0000 C   0  0  0  0  0  0  0  0  0  0  0  0
   -0.9886   -3.9025    0.0000 C   0  0  0  0  0  0  0  0  0  0  0  0
    0.5114   -3.8955    0.0000 C   0  0  0  0  0  0  0  0  0  0  0  0
    1.2553   -2.5929    0.0000 C   0  0  0  0  0  0  0  0  0  0  0  0
   -3.2446   -2.6141    0.0000 O   0  0  0  0  0  0  0  0  0  0  0  0
   -3.9885   -3.9166    0.0000 C   0  0  0  0  0  0  0  0  0  0  0  0
  1  2  2  0  0  0  0
  1  6  1  0  0  0  0
  2  3  1  0  0  0  0
  3  4  2  0  0  0  0
  4  5  1  0  0  0  0
  5  6  2  0  0  0  0
  5 11  1  0  0  0  0
  6  7  1  0  0  0  0
  7  8  2  0  0  0  0
  8  9  1  0  0  0  0
  9 10  2  0  0  0  0
  9 11  1  0  0  0  0
  1 12  1  0  0  0  0
 13 14  1  0  0  0  0
 14 15  1  0  0  0  0
 16 14  1  1  0  0  0
 14 19  1  0  0  0  0
 16 17  1  0  0  0  0
 16 18  1  0  0  0  0
 20 19  1  1  0  0  0
 20 21  1  0  0  0  0
 20 25  1  0  0  0  0
 21 22  1  0  0  0  0
 21 30  1  6  0  0  0
 22 23  1  0  0  0  0
 22 29  1  1  0  0  0
 23 24  1  0  0  0  0
 23 28  1  6  0  0  0
 24 25  1  0  0  0  0
 24 26  1  1  0  0  0
 26 27  1  0  0  0  0
  2 17  1  0  0  0  0
  3 18  1  0  0  0  0
  4 31  1  0  0  0  0
  8 32  1  0  0  0  0
 33 34  2  0  0  0  0
 33 38  1  0  0  0  0
 34 35  1  0  0  0  0
 35 36  2  0  0  0  0
 35 39  1  0  0  0  0
 36 37  1  0  0  0  0
 37 38  2  0  0  0  0
 39 40  1  0  0  0  0
  7 33  1  0  0  0  0
M  END
> <score_KierFlex>
0.516314

$$$$
suggested molecule #195
 MOE2019            2D

 34 37  0  0  1  0  0  0  0  0999 V2000
    3.4992   -1.2833    0.0000 C   0  0  0  0  0  0  0  0  0  1  0  0
    4.9992   -1.2762    0.0000 C   0  0  0  0  0  0  0  0  0  2  0  0
    5.7430    0.0263    0.0000 C   0  0  0  0  0  0  0  0  0  3  0  0
    4.9869    1.3218    0.0000 C   0  0  0  0  0  0  0  0  0  4  0  0
    3.4870    1.3147    0.0000 C   0  0  0  0  0  0  0  0  0  5  0  0
    2.7431    0.0122    0.0000 C   0  0  0  0  0  0  0  0  0  6  0  0
    1.2431    0.0051    0.0000 C   0  0  0  0  0  0  0  0  0  7  0  0
    0.4870    1.3006    0.0000 C   0  0  0  0  0  0  0  0  0  8  0  0
    1.2309    2.6032    0.0000 C   0  0  0  0  0  0  0  0  0  9  0  0
    0.4748    3.8987    0.0000 O   0  0  0  0  0  0  0  0  0 10  0  0
    2.7309    2.6102    0.0000 O   0  0  0  0  0  0  0  0  0 11  0  0
    2.9041   -2.3253    0.0000 H   0  0  0  0  0  0  0  0  0  0  0  0
    7.9342   -3.8161    0.0000 C   0  0  0  0  0  0  0  0  0  0  0  0
    8.6781   -2.5136    0.0000 C   0  0  0  0  0  0  0  0  0  0  0  0
    9.4220   -1.2110    0.0000 C   0  0  0  0  0  0  0  0  0  0  0  0
    7.3755   -1.7697    0.0000 C   0  0  1  0  0  0  0  0  0  0  0  0
    6.0081   -2.3862    0.0000 C   0  0  0  0  0  0  0  0  0  0  0  0
    7.2117   -0.2787    0.0000 O   0  0  0  0  0  0  0  0  0  0  0  0
    9.9806   -3.2575    0.0000 O   0  0  0  0  0  0  0  0  0  0  0  0
    9.9877   -4.7574    0.0000 C   0  0  1  0  0  0  0  0  0  0  0  0
   11.2902   -5.5013    0.0000 C   0  0  1  0  0  0  0  0  0  0  0  0
   11.2973   -7.0013    0.0000 C   0  0  2  0  0  0  0  0  0  0  0  0
   10.0018   -7.7574    0.0000 C   0  0  1  0  0  0  0  0  0  0  0  0
    8.6992   -7.0135    0.0000 C   0  0  2  0  0  0  0  0  0  0  0  0
    8.6922   -5.5135    0.0000 O   0  0  0  0  0  0  0  0  0  0  0  0
    7.4037   -7.7696    0.0000 C   0  0  0  0  0  0  0  0  0  0  0  0
    7.4108   -9.2696    0.0000 O   0  0  0  0  0  0  0  0  0  0  0  0
   10.0088   -9.2574    0.0000 O   0  0  0  0  0  0  0  0  0  0  0  0
   12.5998   -7.7452    0.0000 O   0  0  0  0  0  0  0  0  0  0  0  0
   12.5857   -4.7452    0.0000 O   0  0  0  0  0  0  0  0  0  0  0  0
    5.7308    2.6244    0.0000 O   0  0  0  0  0  0  0  0  0  0  0  0
   -0.7130    1.2950    0.0000 H   0  0  0  0  0  0  0  0  0  0  0  0
    0.4992   -1.2974    0.0000 O   0  0  0  0  0  0  0  0  0  0  0  0
   -1.0008   -1.3045    0.0000 C   0  0  0  0  0  0  0  0  0  0  0  0
  1  2  2  0  0  0  0
  1  6  1  0  0  0  0
  2  3  1  0  0  0  0
  3  4  2  0  0  0  0
  4  5  1  0  0  0  0
  5  6  2  0  0  0  0
  5 11  1  0  0  0  0
  6  7  1  0  0  0  0
  7  8  2  0  0  0  0
  8  9  1  0  0  0  0
  9 10  2  0  0  0  0
  9 11  1  0  0  0  0
  1 12  1  0  0  0  0
 13 14  1  0  0  0  0
 14 15  1  0  0  0  0
 16 14  1  1  0  0  0
 14 19  1  0  0  0  0
 16 17  1  0  0  0  0
 16 18  1  0  0  0  0
 20 19  1  1  0  0  0
 20 21  1  0  0  0  0
 20 25  1  0  0  0  0
 21 22  1  0  0  0  0
 21 30  1  6  0  0  0
 22 23  1  0  0  0  0
 22 29  1  1  0  0  0
 23 24  1  0  0  0  0
 23 28  1  6  0  0  0
 24 25  1  0  0  0  0
 24 26  1  1  0  0  0
 26 27  1  0  0  0  0
  2 17  1  0  0  0  0
  3 18  1  0  0  0  0
  4 31  1  0  0  0  0
  8 32  1  0  0  0  0
 33 34  1  0  0  0  0
  7 33  1  0  0  0  0
M  END
> <score_Kier3>
0.51147

$$$$
suggested molecule #196
 MOE2019            2D

 34 37  0  0  1  0  0  0  0  0999 V2000
    3.4992   -1.2833    0.0000 C   0  0  0  0  0  0  0  0  0  1  0  0
    4.9992   -1.2762    0.0000 C   0  0  0  0  0  0  0  0  0  2  0  0
    5.7430    0.0263    0.0000 C   0  0  0  0  0  0  0  0  0  3  0  0
    4.9869    1.3218    0.0000 C   0  0  0  0  0  0  0  0  0  4  0  0
    3.4870    1.3147    0.0000 C   0  0  0  0  0  0  0  0  0  5  0  0
    2.7431    0.0122    0.0000 C   0  0  0  0  0  0  0  0  0  6  0  0
    1.2431    0.0051    0.0000 C   0  0  0  0  0  0  0  0  0  7  0  0
    0.4870    1.3006    0.0000 C   0  0  0  0  0  0  0  0  0  8  0  0
    1.2309    2.6032    0.0000 C   0  0  0  0  0  0  0  0  0  9  0  0
    0.4748    3.8987    0.0000 O   0  0  0  0  0  0  0  0  0 10  0  0
    2.7309    2.6102    0.0000 O   0  0  0  0  0  0  0  0  0 11  0  0
    2.9041   -2.3253    0.0000 H   0  0  0  0  0  0  0  0  0  0  0  0
    7.9342   -3.8161    0.0000 C   0  0  0  0  0  0  0  0  0  0  0  0
    8.6781   -2.5136    0.0000 C   0  0  0  0  0  0  0  0  0  0  0  0
    9.4220   -1.2110    0.0000 C   0  0  0  0  0  0  0  0  0  0  0  0
    7.3755   -1.7697    0.0000 C   0  0  1  0  0  0  0  0  0  0  0  0
    6.0081   -2.3862    0.0000 C   0  0  0  0  0  0  0  0  0  0  0  0
    7.2117   -0.2787    0.0000 O   0  0  0  0  0  0  0  0  0  0  0  0
    9.9806   -3.2575    0.0000 O   0  0  0  0  0  0  0  0  0  0  0  0
    9.9877   -4.7574    0.0000 C   0  0  1  0  0  0  0  0  0  0  0  0
   11.2902   -5.5013    0.0000 C   0  0  1  0  0  0  0  0  0  0  0  0
   11.2973   -7.0013    0.0000 C   0  0  2  0  0  0  0  0  0  0  0  0
   10.0018   -7.7574    0.0000 C   0  0  1  0  0  0  0  0  0  0  0  0
    8.6992   -7.0135    0.0000 C   0  0  2  0  0  0  0  0  0  0  0  0
    8.6922   -5.5135    0.0000 O   0  0  0  0  0  0  0  0  0  0  0  0
    7.4037   -7.7696    0.0000 C   0  0  0  0  0  0  0  0  0  0  0  0
    7.4108   -9.2696    0.0000 O   0  0  0  0  0  0  0  0  0  0  0  0
   10.0088   -9.2574    0.0000 O   0  0  0  0  0  0  0  0  0  0  0  0
   12.5998   -7.7452    0.0000 O   0  0  0  0  0  0  0  0  0  0  0  0
   12.5857   -4.7452    0.0000 O   0  0  0  0  0  0  0  0  0  0  0  0
    5.7308    2.6244    0.0000 O   0  0  0  0  0  0  0  0  0  0  0  0
   -0.7130    1.2950    0.0000 H   0  0  0  0  0  0  0  0  0  0  0  0
    0.4992   -1.2974    0.0000 O   0  0  0  0  0  0  0  0  0  0  0  0
   -1.0008   -1.3045    0.0000 C   0  0  0  0  0  0  0  0  0  0  0  0
  1  2  2  0  0  0  0
  1  6  1  0  0  0  0
  2  3  1  0  0  0  0
  3  4  2  0  0  0  0
  4  5  1  0  0  0  0
  5  6  2  0  0  0  0
  5 11  1  0  0  0  0
  6  7  1  0  0  0  0
  7  8  2  0  0  0  0
  8  9  1  0  0  0  0
  9 10  2  0  0  0  0
  9 11  1  0  0  0  0
  1 12  1  0  0  0  0
 13 14  1  0  0  0  0
 14 15  1  0  0  0  0
 16 14  1  1  0  0  0
 14 19  1  0  0  0  0
 16 17  1  0  0  0  0
 16 18  1  0  0  0  0
 20 19  1  1  0  0  0
 20 21  1  0  0  0  0
 20 25  1  0  0  0  0
 21 22  1  0  0  0  0
 21 30  1  6  0  0  0
 22 23  1  0  0  0  0
 22 29  1  1  0  0  0
 23 24  1  0  0  0  0
 23 28  1  6  0  0  0
 24 25  1  0  0  0  0
 24 26  1  1  0  0  0
 26 27  1  0  0  0  0
  2 17  1  0  0  0  0
  3 18  1  0  0  0  0
  4 31  1  0  0  0  0
  8 32  1  0  0  0  0
 33 34  1  0  0  0  0
  7 33  1  0  0  0  0
M  END
> <score_KierA3>
0.512124

$$$$
suggested molecule #197
 MOE2019            2D

 34 37  0  0  1  0  0  0  0  0999 V2000
    3.4992   -1.2833    0.0000 C   0  0  0  0  0  0  0  0  0  1  0  0
    4.9992   -1.2762    0.0000 C   0  0  0  0  0  0  0  0  0  2  0  0
    5.7430    0.0263    0.0000 C   0  0  0  0  0  0  0  0  0  3  0  0
    4.9869    1.3218    0.0000 C   0  0  0  0  0  0  0  0  0  4  0  0
    3.4870    1.3147    0.0000 C   0  0  0  0  0  0  0  0  0  5  0  0
    2.7431    0.0122    0.0000 C   0  0  0  0  0  0  0  0  0  6  0  0
    1.2431    0.0051    0.0000 C   0  0  0  0  0  0  0  0  0  7  0  0
    0.4870    1.3006    0.0000 C   0  0  0  0  0  0  0  0  0  8  0  0
    1.2309    2.6032    0.0000 C   0  0  0  0  0  0  0  0  0  9  0  0
    0.4748    3.8987    0.0000 O   0  0  0  0  0  0  0  0  0 10  0  0
    2.7309    2.6102    0.0000 O   0  0  0  0  0  0  0  0  0 11  0  0
    2.9041   -2.3253    0.0000 H   0  0  0  0  0  0  0  0  0  0  0  0
    7.9342   -3.8161    0.0000 C   0  0  0  0  0  0  0  0  0  0  0  0
    8.6781   -2.5136    0.0000 C   0  0  0  0  0  0  0  0  0  0  0  0
    9.4220   -1.2110    0.0000 C   0  0  0  0  0  0  0  0  0  0  0  0
    7.3755   -1.7697    0.0000 C   0  0  1  0  0  0  0  0  0  0  0  0
    6.0081   -2.3862    0.0000 C   0  0  0  0  0  0  0  0  0  0  0  0
    7.2117   -0.2787    0.0000 O   0  0  0  0  0  0  0  0  0  0  0  0
    9.9806   -3.2575    0.0000 O   0  0  0  0  0  0  0  0  0  0  0  0
    9.9877   -4.7574    0.0000 C   0  0  1  0  0  0  0  0  0  0  0  0
   11.2902   -5.5013    0.0000 C   0  0  1  0  0  0  0  0  0  0  0  0
   11.2973   -7.0013    0.0000 C   0  0  2  0  0  0  0  0  0  0  0  0
   10.0018   -7.7574    0.0000 C   0  0  1  0  0  0  0  0  0  0  0  0
    8.6992   -7.0135    0.0000 C   0  0  2  0  0  0  0  0  0  0  0  0
    8.6922   -5.5135    0.0000 O   0  0  0  0  0  0  0  0  0  0  0  0
    7.4037   -7.7696    0.0000 C   0  0  0  0  0  0  0  0  0  0  0  0
    7.4108   -9.2696    0.0000 O   0  0  0  0  0  0  0  0  0  0  0  0
   10.0088   -9.2574    0.0000 O   0  0  0  0  0  0  0  0  0  0  0  0
   12.5998   -7.7452    0.0000 O   0  0  0  0  0  0  0  0  0  0  0  0
   12.5857   -4.7452    0.0000 O   0  0  0  0  0  0  0  0  0  0  0  0
    5.7308    2.6244    0.0000 O   0  0  0  0  0  0  0  0  0  0  0  0
   -0.7130    1.2950    0.0000 H   0  0  0  0  0  0  0  0  0  0  0  0
    0.4992   -1.2974    0.0000 O   0  0  0  0  0  0  0  0  0  0  0  0
   -1.0008   -1.3045    0.0000 C   0  0  0  0  0  0  0  0  0  0  0  0
  1  2  2  0  0  0  0
  1  6  1  0  0  0  0
  2  3  1  0  0  0  0
  3  4  2  0  0  0  0
  4  5  1  0  0  0  0
  5  6  2  0  0  0  0
  5 11  1  0  0  0  0
  6  7  1  0  0  0  0
  7  8  2  0  0  0  0
  8  9  1  0  0  0  0
  9 10  2  0  0  0  0
  9 11  1  0  0  0  0
  1 12  1  0  0  0  0
 13 14  1  0  0  0  0
 14 15  1  0  0  0  0
 16 14  1  1  0  0  0
 14 19  1  0  0  0  0
 16 17  1  0  0  0  0
 16 18  1  0  0  0  0
 20 19  1  1  0  0  0
 20 21  1  0  0  0  0
 20 25  1  0  0  0  0
 21 22  1  0  0  0  0
 21 30  1  6  0  0  0
 22 23  1  0  0  0  0
 22 29  1  1  0  0  0
 23 24  1  0  0  0  0
 23 28  1  6  0  0  0
 24 25  1  0  0  0  0
 24 26  1  1  0  0  0
 26 27  1  0  0  0  0
  2 17  1  0  0  0  0
  3 18  1  0  0  0  0
  4 31  1  0  0  0  0
  8 32  1  0  0  0  0
 33 34  1  0  0  0  0
  7 33  1  0  0  0  0
M  END
> <score_KierFlex>
0.516287

$$$$
suggested molecule #198
 MOE2019            2D

 43 47  0  0  1  0  0  0  0  0999 V2000
    3.4992   -1.2833    0.0000 C   0  0  0  0  0  0  0  0  0  1  0  0
    4.9992   -1.2762    0.0000 C   0  0  0  0  0  0  0  0  0  2  0  0
    5.7430    0.0263    0.0000 C   0  0  0  0  0  0  0  0  0  3  0  0
    4.9869    1.3218    0.0000 C   0  0  0  0  0  0  0  0  0  4  0  0
    3.4870    1.3147    0.0000 C   0  0  0  0  0  0  0  0  0  5  0  0
    2.7431    0.0122    0.0000 C   0  0  0  0  0  0  0  0  0  6  0  0
    1.2431    0.0051    0.0000 C   0  0  0  0  0  0  0  0  0  7  0  0
    0.4870    1.3006    0.0000 C   0  0  0  0  0  0  0  0  0  8  0  0
    1.2309    2.6032    0.0000 C   0  0  0  0  0  0  0  0  0  9  0  0
    0.4748    3.8987    0.0000 O   0  0  0  0  0  0  0  0  0 10  0  0
    2.7309    2.6102    0.0000 O   0  0  0  0  0  0  0  0  0 11  0  0
    2.9041   -2.3253    0.0000 H   0  0  0  0  0  0  0  0  0  0  0  0
    7.9342   -3.8161    0.0000 C   0  0  0  0  0  0  0  0  0  0  0  0
    8.6781   -2.5136    0.0000 C   0  0  0  0  0  0  0  0  0  0  0  0
    9.4220   -1.2110    0.0000 C   0  0  0  0  0  0  0  0  0  0  0  0
    7.3755   -1.7697    0.0000 C   0  0  1  0  0  0  0  0  0  0  0  0
    6.0081   -2.3862    0.0000 C   0  0  0  0  0  0  0  0  0  0  0  0
    7.2117   -0.2787    0.0000 O   0  0  0  0  0  0  0  0  0  0  0  0
    9.9806   -3.2575    0.0000 O   0  0  0  0  0  0  0  0  0  0  0  0
   11.2761   -2.5013    0.0000 C   0  0  1  0  0  0  0  0  0  0  0  0
   12.5787   -3.2452    0.0000 C   0  0  1  0  0  0  0  0  0  0  0  0
   13.8742   -2.4891    0.0000 C   0  0  2  0  0  0  0  0  0  0  0  0
   13.8671   -0.9891    0.0000 C   0  0  1  0  0  0  0  0  0  0  0  0
   12.5646   -0.2453    0.0000 C   0  0  2  0  0  0  0  0  0  0  0  0
   11.2691   -1.0014    0.0000 O   0  0  0  0  0  0  0  0  0  0  0  0
   12.5575    1.2547    0.0000 C   0  0  0  0  0  0  0  0  0  0  0  0
   13.8530    2.0108    0.0000 O   0  0  0  0  0  0  0  0  0  0  0  0
   15.1626   -0.2330    0.0000 O   0  0  0  0  0  0  0  0  0  0  0  0
   15.1767   -3.2330    0.0000 O   0  0  0  0  0  0  0  0  0  0  0  0
   12.5857   -4.7452    0.0000 O   0  0  0  0  0  0  0  0  0  0  0  0
    5.7308    2.6244    0.0000 O   0  0  0  0  0  0  0  0  0  0  0  0
   -0.7130    1.2950    0.0000 H   0  0  0  0  0  0  0  0  0  0  0  0
    0.4992   -1.2974    0.0000 C   0  0  0  0  0  0  0  0  0  0  0  0
    1.2553   -2.5929    0.0000 C   0  0  0  0  0  0  0  0  0  0  0  0
    0.5114   -3.8955    0.0000 C   0  0  0  0  0  0  0  0  0  0  0  0
   -0.9886   -3.9025    0.0000 C   0  0  0  0  0  0  0  0  0  0  0  0
   -1.7447   -2.6070    0.0000 C   0  0  0  0  0  0  0  0  0  0  0  0
   -1.0008   -1.3045    0.0000 C   0  0  0  0  0  0  0  0  0  0  0  0
   -3.2446   -2.6141    0.0000 O   0  0  0  0  0  0  0  0  0  0  0  0
   -4.0007   -1.3186    0.0000 C   0  0  0  0  0  0  0  0  0  0  0  0
   -1.7324   -5.2051    0.0000 O   0  0  0  0  0  0  0  0  0  0  0  0
   -3.2324   -5.2121    0.0000 C   0  0  0  0  0  0  0  0  0  0  0  0
    1.2675   -5.1910    0.0000 O   0  0  0  0  0  0  0  0  0  0  0  0
  1  2  2  0  0  0  0
  1  6  1  0  0  0  0
  2  3  1  0  0  0  0
  3  4  2  0  0  0  0
  4  5  1  0  0  0  0
  5  6  2  0  0  0  0
  5 11  1  0  0  0  0
  6  7  1  0  0  0  0
  7  8  2  0  0  0  0
  8  9  1  0  0  0  0
  9 10  2  0  0  0  0
  9 11  1  0  0  0  0
  1 12  1  0  0  0  0
 13 14  1  0  0  0  0
 14 15  1  0  0  0  0
 16 14  1  1  0  0  0
 14 19  1  0  0  0  0
 16 17  1  0  0  0  0
 16 18  1  0  0  0  0
 20 19  1  1  0  0  0
 20 21  1  0  0  0  0
 20 25  1  0  0  0  0
 21 22  1  0  0  0  0
 21 30  1  6  0  0  0
 22 23  1  0  0  0  0
 22 29  1  1  0  0  0
 23 24  1  0  0  0  0
 23 28  1  6  0  0  0
 24 25  1  0  0  0  0
 24 26  1  1  0  0  0
 26 27  1  0  0  0  0
  2 17  1  0  0  0  0
  3 18  1  0  0  0  0
  4 31  1  0  0  0  0
  8 32  1  0  0  0  0
 33 34  2  0  0  0  0
 33 38  1  0  0  0  0
 34 35  1  0  0  0  0
 35 36  2  0  0  0  0
 35 43  1  0  0  0  0
 36 37  1  0  0  0  0
 36 41  1  0  0  0  0
 37 38  2  0  0  0  0
 37 39  1  0  0  0  0
 39 40  1  0  0  0  0
 41 42  1  0  0  0  0
  7 33  1  0  0  0  0
M  END
> <score_Kier3>
0.511454

$$$$
suggested molecule #199
 MOE2019            2D

 43 47  0  0  1  0  0  0  0  0999 V2000
    3.4992   -1.2833    0.0000 C   0  0  0  0  0  0  0  0  0  1  0  0
    4.9992   -1.2762    0.0000 C   0  0  0  0  0  0  0  0  0  2  0  0
    5.7430    0.0263    0.0000 C   0  0  0  0  0  0  0  0  0  3  0  0
    4.9869    1.3218    0.0000 C   0  0  0  0  0  0  0  0  0  4  0  0
    3.4870    1.3147    0.0000 C   0  0  0  0  0  0  0  0  0  5  0  0
    2.7431    0.0122    0.0000 C   0  0  0  0  0  0  0  0  0  6  0  0
    1.2431    0.0051    0.0000 C   0  0  0  0  0  0  0  0  0  7  0  0
    0.4870    1.3006    0.0000 C   0  0  0  0  0  0  0  0  0  8  0  0
    1.2309    2.6032    0.0000 C   0  0  0  0  0  0  0  0  0  9  0  0
    0.4748    3.8987    0.0000 O   0  0  0  0  0  0  0  0  0 10  0  0
    2.7309    2.6102    0.0000 O   0  0  0  0  0  0  0  0  0 11  0  0
    2.9041   -2.3253    0.0000 H   0  0  0  0  0  0  0  0  0  0  0  0
    7.9342   -3.8161    0.0000 C   0  0  0  0  0  0  0  0  0  0  0  0
    8.6781   -2.5136    0.0000 C   0  0  0  0  0  0  0  0  0  0  0  0
    9.4220   -1.2110    0.0000 C   0  0  0  0  0  0  0  0  0  0  0  0
    7.3755   -1.7697    0.0000 C   0  0  1  0  0  0  0  0  0  0  0  0
    6.0081   -2.3862    0.0000 C   0  0  0  0  0  0  0  0  0  0  0  0
    7.2117   -0.2787    0.0000 O   0  0  0  0  0  0  0  0  0  0  0  0
    9.9806   -3.2575    0.0000 O   0  0  0  0  0  0  0  0  0  0  0  0
   11.2761   -2.5013    0.0000 C   0  0  1  0  0  0  0  0  0  0  0  0
   12.5787   -3.2452    0.0000 C   0  0  1  0  0  0  0  0  0  0  0  0
   13.8742   -2.4891    0.0000 C   0  0  2  0  0  0  0  0  0  0  0  0
   13.8671   -0.9891    0.0000 C   0  0  1  0  0  0  0  0  0  0  0  0
   12.5646   -0.2453    0.0000 C   0  0  2  0  0  0  0  0  0  0  0  0
   11.2691   -1.0014    0.0000 O   0  0  0  0  0  0  0  0  0  0  0  0
   12.5575    1.2547    0.0000 C   0  0  0  0  0  0  0  0  0  0  0  0
   13.8530    2.0108    0.0000 O   0  0  0  0  0  0  0  0  0  0  0  0
   15.1626   -0.2330    0.0000 O   0  0  0  0  0  0  0  0  0  0  0  0
   15.1767   -3.2330    0.0000 O   0  0  0  0  0  0  0  0  0  0  0  0
   12.5857   -4.7452    0.0000 O   0  0  0  0  0  0  0  0  0  0  0  0
    5.7308    2.6244    0.0000 O   0  0  0  0  0  0  0  0  0  0  0  0
   -0.7130    1.2950    0.0000 H   0  0  0  0  0  0  0  0  0  0  0  0
    0.4992   -1.2974    0.0000 C   0  0  0  0  0  0  0  0  0  0  0  0
    1.2553   -2.5929    0.0000 C   0  0  0  0  0  0  0  0  0  0  0  0
    0.5114   -3.8955    0.0000 C   0  0  0  0  0  0  0  0  0  0  0  0
   -0.9886   -3.9025    0.0000 C   0  0  0  0  0  0  0  0  0  0  0  0
   -1.7447   -2.6070    0.0000 C   0  0  0  0  0  0  0  0  0  0  0  0
   -1.0008   -1.3045    0.0000 C   0  0  0  0  0  0  0  0  0  0  0  0
   -3.2446   -2.6141    0.0000 O   0  0  0  0  0  0  0  0  0  0  0  0
   -4.0007   -1.3186    0.0000 C   0  0  0  0  0  0  0  0  0  0  0  0
   -1.7324   -5.2051    0.0000 O   0  0  0  0  0  0  0  0  0  0  0  0
   -3.2324   -5.2121    0.0000 C   0  0  0  0  0  0  0  0  0  0  0  0
    1.2675   -5.1910    0.0000 O   0  0  0  0  0  0  0  0  0  0  0  0
  1  2  2  0  0  0  0
  1  6  1  0  0  0  0
  2  3  1  0  0  0  0
  3  4  2  0  0  0  0
  4  5  1  0  0  0  0
  5  6  2  0  0  0  0
  5 11  1  0  0  0  0
  6  7  1  0  0  0  0
  7  8  2  0  0  0  0
  8  9  1  0  0  0  0
  9 10  2  0  0  0  0
  9 11  1  0  0  0  0
  1 12  1  0  0  0  0
 13 14  1  0  0  0  0
 14 15  1  0  0  0  0
 16 14  1  1  0  0  0
 14 19  1  0  0  0  0
 16 17  1  0  0  0  0
 16 18  1  0  0  0  0
 20 19  1  1  0  0  0
 20 21  1  0  0  0  0
 20 25  1  0  0  0  0
 21 22  1  0  0  0  0
 21 30  1  6  0  0  0
 22 23  1  0  0  0  0
 22 29  1  1  0  0  0
 23 24  1  0  0  0  0
 23 28  1  6  0  0  0
 24 25  1  0  0  0  0
 24 26  1  1  0  0  0
 26 27  1  0  0  0  0
  2 17  1  0  0  0  0
  3 18  1  0  0  0  0
  4 31  1  0  0  0  0
  8 32  1  0  0  0  0
 33 34  2  0  0  0  0
 33 38  1  0  0  0  0
 34 35  1  0  0  0  0
 35 36  2  0  0  0  0
 35 43  1  0  0  0  0
 36 37  1  0  0  0  0
 36 41  1  0  0  0  0
 37 38  2  0  0  0  0
 37 39  1  0  0  0  0
 39 40  1  0  0  0  0
 41 42  1  0  0  0  0
  7 33  1  0  0  0  0
M  END
> <score_KierFlex>
0.516265

$$$$
suggested molecule #200
 MOE2019            2D

 33 36  0  0  1  0  0  0  0  0999 V2000
    3.4992   -1.2833    0.0000 C   0  0  0  0  0  0  0  0  0  1  0  0
    4.9992   -1.2762    0.0000 C   0  0  0  0  0  0  0  0  0  2  0  0
    5.7430    0.0263    0.0000 C   0  0  0  0  0  0  0  0  0  3  0  0
    4.9869    1.3218    0.0000 C   0  0  0  0  0  0  0  0  0  4  0  0
    3.4870    1.3147    0.0000 C   0  0  0  0  0  0  0  0  0  5  0  0
    2.7431    0.0122    0.0000 C   0  0  0  0  0  0  0  0  0  6  0  0
    1.2431    0.0051    0.0000 C   0  0  0  0  0  0  0  0  0  7  0  0
    0.4870    1.3006    0.0000 C   0  0  0  0  0  0  0  0  0  8  0  0
    1.2309    2.6032    0.0000 C   0  0  0  0  0  0  0  0  0  9  0  0
    0.4748    3.8987    0.0000 O   0  0  0  0  0  0  0  0  0 10  0  0
    2.7309    2.6102    0.0000 O   0  0  0  0  0  0  0  0  0 11  0  0
    2.9041   -2.3253    0.0000 H   0  0  0  0  0  0  0  0  0  0  0  0
    7.9342   -3.8161    0.0000 C   0  0  0  0  0  0  0  0  0  0  0  0
    8.6781   -2.5136    0.0000 C   0  0  0  0  0  0  0  0  0  0  0  0
    9.4220   -1.2110    0.0000 C   0  0  0  0  0  0  0  0  0  0  0  0
    7.3755   -1.7697    0.0000 C   0  0  1  0  0  0  0  0  0  0  0  0
    6.0081   -2.3862    0.0000 C   0  0  0  0  0  0  0  0  0  0  0  0
    7.2117   -0.2787    0.0000 O   0  0  0  0  0  0  0  0  0  0  0  0
    9.9806   -3.2575    0.0000 O   0  0  0  0  0  0  0  0  0  0  0  0
    9.9877   -4.7574    0.0000 C   0  0  1  0  0  0  0  0  0  0  0  0
   11.2902   -5.5013    0.0000 C   0  0  1  0  0  0  0  0  0  0  0  0
   11.2973   -7.0013    0.0000 C   0  0  2  0  0  0  0  0  0  0  0  0
   10.0018   -7.7574    0.0000 C   0  0  1  0  0  0  0  0  0  0  0  0
    8.6992   -7.0135    0.0000 C   0  0  2  0  0  0  0  0  0  0  0  0
    8.6922   -5.5135    0.0000 O   0  0  0  0  0  0  0  0  0  0  0  0
    7.4037   -7.7696    0.0000 C   0  0  0  0  0  0  0  0  0  0  0  0
    7.4108   -9.2696    0.0000 O   0  0  0  0  0  0  0  0  0  0  0  0
   10.0088   -9.2574    0.0000 O   0  0  0  0  0  0  0  0  0  0  0  0
   12.5998   -7.7452    0.0000 O   0  0  0  0  0  0  0  0  0  0  0  0
   12.5857   -4.7452    0.0000 O   0  0  0  0  0  0  0  0  0  0  0  0
    5.7308    2.6244    0.0000 O   0  0  0  0  0  0  0  0  0  0  0  0
   -0.7130    1.2950    0.0000 H   0  0  0  0  0  0  0  0  0  0  0  0
    0.4992   -1.2974    0.0000 O   0  0  0  0  0  0  0  0  0  0  0  0
  1  2  2  0  0  0  0
  1  6  1  0  0  0  0
  2  3  1  0  0  0  0
  3  4  2  0  0  0  0
  4  5  1  0  0  0  0
  5  6  2  0  0  0  0
  5 11  1  0  0  0  0
  6  7  1  0  0  0  0
  7  8  2  0  0  0  0
  8  9  1  0  0  0  0
  9 10  2  0  0  0  0
  9 11  1  0  0  0  0
  1 12  1  0  0  0  0
 13 14  1  0  0  0  0
 14 15  1  0  0  0  0
 16 14  1  1  0  0  0
 14 19  1  0  0  0  0
 16 17  1  0  0  0  0
 16 18  1  0  0  0  0
 20 19  1  1  0  0  0
 20 21  1  0  0  0  0
 20 25  1  0  0  0  0
 21 22  1  0  0  0  0
 21 30  1  6  0  0  0
 22 23  1  0  0  0  0
 22 29  1  1  0  0  0
 23 24  1  0  0  0  0
 23 28  1  6  0  0  0
 24 25  1  0  0  0  0
 24 26  1  1  0  0  0
 26 27  1  0  0  0  0
  2 17  1  0  0  0  0
  3 18  1  0  0  0  0
  4 31  1  0  0  0  0
  8 32  1  0  0  0  0
  7 33  1  0  0  0  0
M  END
> <score_Kier3>
0.511458

$$$$
suggested molecule #201
 MOE2019            2D

 33 36  0  0  1  0  0  0  0  0999 V2000
    3.4992   -1.2833    0.0000 C   0  0  0  0  0  0  0  0  0  1  0  0
    4.9992   -1.2762    0.0000 C   0  0  0  0  0  0  0  0  0  2  0  0
    5.7430    0.0263    0.0000 C   0  0  0  0  0  0  0  0  0  3  0  0
    4.9869    1.3218    0.0000 C   0  0  0  0  0  0  0  0  0  4  0  0
    3.4870    1.3147    0.0000 C   0  0  0  0  0  0  0  0  0  5  0  0
    2.7431    0.0122    0.0000 C   0  0  0  0  0  0  0  0  0  6  0  0
    1.2431    0.0051    0.0000 C   0  0  0  0  0  0  0  0  0  7  0  0
    0.4870    1.3006    0.0000 C   0  0  0  0  0  0  0  0  0  8  0  0
    1.2309    2.6032    0.0000 C   0  0  0  0  0  0  0  0  0  9  0  0
    0.4748    3.8987    0.0000 O   0  0  0  0  0  0  0  0  0 10  0  0
    2.7309    2.6102    0.0000 O   0  0  0  0  0  0  0  0  0 11  0  0
    2.9041   -2.3253    0.0000 H   0  0  0  0  0  0  0  0  0  0  0  0
    7.9342   -3.8161    0.0000 C   0  0  0  0  0  0  0  0  0  0  0  0
    8.6781   -2.5136    0.0000 C   0  0  0  0  0  0  0  0  0  0  0  0
    9.4220   -1.2110    0.0000 C   0  0  0  0  0  0  0  0  0  0  0  0
    7.3755   -1.7697    0.0000 C   0  0  1  0  0  0  0  0  0  0  0  0
    6.0081   -2.3862    0.0000 C   0  0  0  0  0  0  0  0  0  0  0  0
    7.2117   -0.2787    0.0000 O   0  0  0  0  0  0  0  0  0  0  0  0
    9.9806   -3.2575    0.0000 O   0  0  0  0  0  0  0  0  0  0  0  0
    9.9877   -4.7574    0.0000 C   0  0  1  0  0  0  0  0  0  0  0  0
   11.2902   -5.5013    0.0000 C   0  0  1  0  0  0  0  0  0  0  0  0
   11.2973   -7.0013    0.0000 C   0  0  2  0  0  0  0  0  0  0  0  0
   10.0018   -7.7574    0.0000 C   0  0  1  0  0  0  0  0  0  0  0  0
    8.6992   -7.0135    0.0000 C   0  0  2  0  0  0  0  0  0  0  0  0
    8.6922   -5.5135    0.0000 O   0  0  0  0  0  0  0  0  0  0  0  0
    7.4037   -7.7696    0.0000 C   0  0  0  0  0  0  0  0  0  0  0  0
    7.4108   -9.2696    0.0000 O   0  0  0  0  0  0  0  0  0  0  0  0
   10.0088   -9.2574    0.0000 O   0  0  0  0  0  0  0  0  0  0  0  0
   12.5998   -7.7452    0.0000 O   0  0  0  0  0  0  0  0  0  0  0  0
   12.5857   -4.7452    0.0000 O   0  0  0  0  0  0  0  0  0  0  0  0
    5.7308    2.6244    0.0000 O   0  0  0  0  0  0  0  0  0  0  0  0
   -0.7130    1.2950    0.0000 H   0  0  0  0  0  0  0  0  0  0  0  0
    0.4992   -1.2974    0.0000 O   0  0  0  0  0  0  0  0  0  0  0  0
  1  2  2  0  0  0  0
  1  6  1  0  0  0  0
  2  3  1  0  0  0  0
  3  4  2  0  0  0  0
  4  5  1  0  0  0  0
  5  6  2  0  0  0  0
  5 11  1  0  0  0  0
  6  7  1  0  0  0  0
  7  8  2  0  0  0  0
  8  9  1  0  0  0  0
  9 10  2  0  0  0  0
  9 11  1  0  0  0  0
  1 12  1  0  0  0  0
 13 14  1  0  0  0  0
 14 15  1  0  0  0  0
 16 14  1  1  0  0  0
 14 19  1  0  0  0  0
 16 17  1  0  0  0  0
 16 18  1  0  0  0  0
 20 19  1  1  0  0  0
 20 21  1  0  0  0  0
 20 25  1  0  0  0  0
 21 22  1  0  0  0  0
 21 30  1  6  0  0  0
 22 23  1  0  0  0  0
 22 29  1  1  0  0  0
 23 24  1  0  0  0  0
 23 28  1  6  0  0  0
 24 25  1  0  0  0  0
 24 26  1  1  0  0  0
 26 27  1  0  0  0  0
  2 17  1  0  0  0  0
  3 18  1  0  0  0  0
  4 31  1  0  0  0  0
  8 32  1  0  0  0  0
  7 33  1  0  0  0  0
M  END
> <score_KierFlex>
0.516286

$$$$
suggested molecule #202
 MOE2019            2D

 44 48  0  0  1  0  0  0  0  0999 V2000
    3.4992   -1.2833    0.0000 C   0  0  0  0  0  0  0  0  0  1  0  0
    4.9992   -1.2762    0.0000 C   0  0  0  0  0  0  0  0  0  2  0  0
    5.7430    0.0263    0.0000 C   0  0  0  0  0  0  0  0  0  3  0  0
    4.9869    1.3218    0.0000 C   0  0  0  0  0  0  0  0  0  4  0  0
    3.4870    1.3147    0.0000 C   0  0  0  0  0  0  0  0  0  5  0  0
    2.7431    0.0122    0.0000 C   0  0  0  0  0  0  0  0  0  6  0  0
    1.2431    0.0051    0.0000 C   0  0  0  0  0  0  0  0  0  7  0  0
    0.4870    1.3006    0.0000 C   0  0  0  0  0  0  0  0  0  8  0  0
    1.2309    2.6032    0.0000 C   0  0  0  0  0  0  0  0  0  9  0  0
    0.4748    3.8987    0.0000 O   0  0  0  0  0  0  0  0  0 10  0  0
    2.7309    2.6102    0.0000 O   0  0  0  0  0  0  0  0  0 11  0  0
    2.9041   -2.3253    0.0000 H   0  0  0  0  0  0  0  0  0  0  0  0
    9.9806   -3.2575    0.0000 C   0  0  0  0  0  0  0  0  0  0  0  0
    8.6781   -2.5136    0.0000 C   0  0  0  0  0  0  0  0  0  0  0  0
    7.9342   -3.8161    0.0000 C   0  0  0  0  0  0  0  0  0  0  0  0
    7.3755   -1.7697    0.0000 C   0  0  1  0  0  0  0  0  0  0  0  0
    6.0081   -2.3862    0.0000 C   0  0  0  0  0  0  0  0  0  0  0  0
    7.2117   -0.2787    0.0000 O   0  0  0  0  0  0  0  0  0  0  0  0
    9.4220   -1.2110    0.0000 O   0  0  0  0  0  0  0  0  0  0  0  0
   10.9219   -1.2040    0.0000 C   0  0  1  0  0  0  0  0  0  0  0  0
   11.6658    0.0986    0.0000 C   0  0  1  0  0  0  0  0  0  0  0  0
   13.1658    0.1056    0.0000 C   0  0  2  0  0  0  0  0  0  0  0  0
   13.9219   -1.1899    0.0000 C   0  0  1  0  0  0  0  0  0  0  0  0
   13.1780   -2.4924    0.0000 C   0  0  2  0  0  0  0  0  0  0  0  0
   11.6780   -2.4995    0.0000 O   0  0  0  0  0  0  0  0  0  0  0  0
   13.9341   -3.7879    0.0000 C   0  0  0  0  0  0  0  0  0  0  0  0
   15.4341   -3.7808    0.0000 O   0  0  0  0  0  0  0  0  0  0  0  0
   15.4219   -1.1828    0.0000 O   0  0  0  0  0  0  0  0  0  0  0  0
   13.9097    1.4082    0.0000 O   0  0  0  0  0  0  0  0  0  0  0  0
   10.9097    1.3941    0.0000 O   0  0  0  0  0  0  0  0  0  0  0  0
    5.7308    2.6244    0.0000 O   0  0  0  0  0  0  0  0  0  0  0  0
   -0.7130    1.2950    0.0000 H   0  0  0  0  0  0  0  0  0  0  0  0
   -0.9886   -3.9025    0.0000 C   0  0  0  0  0  0  0  0  0  0  0  0
   -1.7324   -5.2051    0.0000 C   0  0  0  0  0  0  0  0  0  0  0  0
   -3.2324   -5.2121    0.0000 C   0  0  0  0  0  0  0  0  0  0  0  0
   -3.9885   -3.9166    0.0000 C   0  0  0  0  0  0  0  0  0  0  0  0
   -3.2446   -2.6141    0.0000 C   0  0  0  0  0  0  0  0  0  0  0  0
   -1.7447   -2.6070    0.0000 C   0  0  0  0  0  0  0  0  0  0  0  0
   -1.0008   -1.3045    0.0000 O   0  0  0  0  0  0  0  0  0  0  0  0
    0.4992   -1.2974    0.0000 C   0  0  0  0  0  0  0  0  0  0  0  0
   -5.4885   -3.9237    0.0000 O   0  0  0  0  0  0  0  0  0  0  0  0
   -6.2446   -2.6282    0.0000 C   0  0  0  0  0  0  0  0  0  0  0  0
   -3.9763   -6.5147    0.0000 O   0  0  0  0  0  0  0  0  0  0  0  0
   -3.2202   -7.8102    0.0000 C   0  0  0  0  0  0  0  0  0  0  0  0
  1  2  2  0  0  0  0
  1  6  1  0  0  0  0
  2  3  1  0  0  0  0
  3  4  2  0  0  0  0
  4  5  1  0  0  0  0
  5  6  2  0  0  0  0
  5 11  1  0  0  0  0
  6  7  1  0  0  0  0
  7  8  2  0  0  0  0
  8  9  1  0  0  0  0
  9 10  2  0  0  0  0
  9 11  1  0  0  0  0
  1 12  1  0  0  0  0
 13 14  1  0  0  0  0
 14 15  1  0  0  0  0
 16 14  1  1  0  0  0
 14 19  1  0  0  0  0
 16 17  1  0  0  0  0
 16 18  1  0  0  0  0
 20 19  1  1  0  0  0
 20 21  1  0  0  0  0
 20 25  1  0  0  0  0
 21 22  1  0  0  0  0
 21 30  1  6  0  0  0
 22 23  1  0  0  0  0
 22 29  1  1  0  0  0
 23 24  1  0  0  0  0
 23 28  1  6  0  0  0
 24 25  1  0  0  0  0
 24 26  1  1  0  0  0
 26 27  1  0  0  0  0
  2 17  1  0  0  0  0
  3 18  1  0  0  0  0
  4 31  1  0  0  0  0
  8 32  1  0  0  0  0
 33 34  1  0  0  0  0
 33 38  2  0  0  0  0
 34 35  2  0  0  0  0
 35 36  1  0  0  0  0
 35 43  1  0  0  0  0
 36 37  2  0  0  0  0
 36 41  1  0  0  0  0
 37 38  1  0  0  0  0
 38 39  1  0  0  0  0
 39 40  1  0  0  0  0
 41 42  1  0  0  0  0
 43 44  1  0  0  0  0
  7 40  1  0  0  0  0
M  END
> <score_Kier3>
0.511473

$$$$
suggested molecule #203
 MOE2019            2D

 44 48  0  0  1  0  0  0  0  0999 V2000
    3.4992   -1.2833    0.0000 C   0  0  0  0  0  0  0  0  0  1  0  0
    4.9992   -1.2762    0.0000 C   0  0  0  0  0  0  0  0  0  2  0  0
    5.7430    0.0263    0.0000 C   0  0  0  0  0  0  0  0  0  3  0  0
    4.9869    1.3218    0.0000 C   0  0  0  0  0  0  0  0  0  4  0  0
    3.4870    1.3147    0.0000 C   0  0  0  0  0  0  0  0  0  5  0  0
    2.7431    0.0122    0.0000 C   0  0  0  0  0  0  0  0  0  6  0  0
    1.2431    0.0051    0.0000 C   0  0  0  0  0  0  0  0  0  7  0  0
    0.4870    1.3006    0.0000 C   0  0  0  0  0  0  0  0  0  8  0  0
    1.2309    2.6032    0.0000 C   0  0  0  0  0  0  0  0  0  9  0  0
    0.4748    3.8987    0.0000 O   0  0  0  0  0  0  0  0  0 10  0  0
    2.7309    2.6102    0.0000 O   0  0  0  0  0  0  0  0  0 11  0  0
    2.9041   -2.3253    0.0000 H   0  0  0  0  0  0  0  0  0  0  0  0
    9.9806   -3.2575    0.0000 C   0  0  0  0  0  0  0  0  0  0  0  0
    8.6781   -2.5136    0.0000 C   0  0  0  0  0  0  0  0  0  0  0  0
    7.9342   -3.8161    0.0000 C   0  0  0  0  0  0  0  0  0  0  0  0
    7.3755   -1.7697    0.0000 C   0  0  1  0  0  0  0  0  0  0  0  0
    6.0081   -2.3862    0.0000 C   0  0  0  0  0  0  0  0  0  0  0  0
    7.2117   -0.2787    0.0000 O   0  0  0  0  0  0  0  0  0  0  0  0
    9.4220   -1.2110    0.0000 O   0  0  0  0  0  0  0  0  0  0  0  0
   10.9219   -1.2040    0.0000 C   0  0  1  0  0  0  0  0  0  0  0  0
   11.6658    0.0986    0.0000 C   0  0  1  0  0  0  0  0  0  0  0  0
   13.1658    0.1056    0.0000 C   0  0  2  0  0  0  0  0  0  0  0  0
   13.9219   -1.1899    0.0000 C   0  0  1  0  0  0  0  0  0  0  0  0
   13.1780   -2.4924    0.0000 C   0  0  2  0  0  0  0  0  0  0  0  0
   11.6780   -2.4995    0.0000 O   0  0  0  0  0  0  0  0  0  0  0  0
   13.9341   -3.7879    0.0000 C   0  0  0  0  0  0  0  0  0  0  0  0
   15.4341   -3.7808    0.0000 O   0  0  0  0  0  0  0  0  0  0  0  0
   15.4219   -1.1828    0.0000 O   0  0  0  0  0  0  0  0  0  0  0  0
   13.9097    1.4082    0.0000 O   0  0  0  0  0  0  0  0  0  0  0  0
   10.9097    1.3941    0.0000 O   0  0  0  0  0  0  0  0  0  0  0  0
    5.7308    2.6244    0.0000 O   0  0  0  0  0  0  0  0  0  0  0  0
   -0.7130    1.2950    0.0000 H   0  0  0  0  0  0  0  0  0  0  0  0
   -0.9886   -3.9025    0.0000 C   0  0  0  0  0  0  0  0  0  0  0  0
   -1.7324   -5.2051    0.0000 C   0  0  0  0  0  0  0  0  0  0  0  0
   -3.2324   -5.2121    0.0000 C   0  0  0  0  0  0  0  0  0  0  0  0
   -3.9885   -3.9166    0.0000 C   0  0  0  0  0  0  0  0  0  0  0  0
   -3.2446   -2.6141    0.0000 C   0  0  0  0  0  0  0  0  0  0  0  0
   -1.7447   -2.6070    0.0000 C   0  0  0  0  0  0  0  0  0  0  0  0
   -1.0008   -1.3045    0.0000 O   0  0  0  0  0  0  0  0  0  0  0  0
    0.4992   -1.2974    0.0000 C   0  0  0  0  0  0  0  0  0  0  0  0
   -5.4885   -3.9237    0.0000 O   0  0  0  0  0  0  0  0  0  0  0  0
   -6.2446   -2.6282    0.0000 C   0  0  0  0  0  0  0  0  0  0  0  0
   -3.9763   -6.5147    0.0000 O   0  0  0  0  0  0  0  0  0  0  0  0
   -3.2202   -7.8102    0.0000 C   0  0  0  0  0  0  0  0  0  0  0  0
  1  2  2  0  0  0  0
  1  6  1  0  0  0  0
  2  3  1  0  0  0  0
  3  4  2  0  0  0  0
  4  5  1  0  0  0  0
  5  6  2  0  0  0  0
  5 11  1  0  0  0  0
  6  7  1  0  0  0  0
  7  8  2  0  0  0  0
  8  9  1  0  0  0  0
  9 10  2  0  0  0  0
  9 11  1  0  0  0  0
  1 12  1  0  0  0  0
 13 14  1  0  0  0  0
 14 15  1  0  0  0  0
 16 14  1  1  0  0  0
 14 19  1  0  0  0  0
 16 17  1  0  0  0  0
 16 18  1  0  0  0  0
 20 19  1  1  0  0  0
 20 21  1  0  0  0  0
 20 25  1  0  0  0  0
 21 22  1  0  0  0  0
 21 30  1  6  0  0  0
 22 23  1  0  0  0  0
 22 29  1  1  0  0  0
 23 24  1  0  0  0  0
 23 28  1  6  0  0  0
 24 25  1  0  0  0  0
 24 26  1  1  0  0  0
 26 27  1  0  0  0  0
  2 17  1  0  0  0  0
  3 18  1  0  0  0  0
  4 31  1  0  0  0  0
  8 32  1  0  0  0  0
 33 34  1  0  0  0  0
 33 38  2  0  0  0  0
 34 35  2  0  0  0  0
 35 36  1  0  0  0  0
 35 43  1  0  0  0  0
 36 37  2  0  0  0  0
 36 41  1  0  0  0  0
 37 38  1  0  0  0  0
 38 39  1  0  0  0  0
 39 40  1  0  0  0  0
 41 42  1  0  0  0  0
 43 44  1  0  0  0  0
  7 40  1  0  0  0  0
M  END
> <score_KierA3>
0.512127

$$$$
suggested molecule #204
 MOE2019            2D

 44 48  0  0  1  0  0  0  0  0999 V2000
    3.4992   -1.2833    0.0000 C   0  0  0  0  0  0  0  0  0  1  0  0
    4.9992   -1.2762    0.0000 C   0  0  0  0  0  0  0  0  0  2  0  0
    5.7430    0.0263    0.0000 C   0  0  0  0  0  0  0  0  0  3  0  0
    4.9869    1.3218    0.0000 C   0  0  0  0  0  0  0  0  0  4  0  0
    3.4870    1.3147    0.0000 C   0  0  0  0  0  0  0  0  0  5  0  0
    2.7431    0.0122    0.0000 C   0  0  0  0  0  0  0  0  0  6  0  0
    1.2431    0.0051    0.0000 C   0  0  0  0  0  0  0  0  0  7  0  0
    0.4870    1.3006    0.0000 C   0  0  0  0  0  0  0  0  0  8  0  0
    1.2309    2.6032    0.0000 C   0  0  0  0  0  0  0  0  0  9  0  0
    0.4748    3.8987    0.0000 O   0  0  0  0  0  0  0  0  0 10  0  0
    2.7309    2.6102    0.0000 O   0  0  0  0  0  0  0  0  0 11  0  0
    2.9041   -2.3253    0.0000 H   0  0  0  0  0  0  0  0  0  0  0  0
    9.9806   -3.2575    0.0000 C   0  0  0  0  0  0  0  0  0  0  0  0
    8.6781   -2.5136    0.0000 C   0  0  0  0  0  0  0  0  0  0  0  0
    7.9342   -3.8161    0.0000 C   0  0  0  0  0  0  0  0  0  0  0  0
    7.3755   -1.7697    0.0000 C   0  0  1  0  0  0  0  0  0  0  0  0
    6.0081   -2.3862    0.0000 C   0  0  0  0  0  0  0  0  0  0  0  0
    7.2117   -0.2787    0.0000 O   0  0  0  0  0  0  0  0  0  0  0  0
    9.4220   -1.2110    0.0000 O   0  0  0  0  0  0  0  0  0  0  0  0
   10.9219   -1.2040    0.0000 C   0  0  1  0  0  0  0  0  0  0  0  0
   11.6658    0.0986    0.0000 C   0  0  1  0  0  0  0  0  0  0  0  0
   13.1658    0.1056    0.0000 C   0  0  2  0  0  0  0  0  0  0  0  0
   13.9219   -1.1899    0.0000 C   0  0  1  0  0  0  0  0  0  0  0  0
   13.1780   -2.4924    0.0000 C   0  0  2  0  0  0  0  0  0  0  0  0
   11.6780   -2.4995    0.0000 O   0  0  0  0  0  0  0  0  0  0  0  0
   13.9341   -3.7879    0.0000 C   0  0  0  0  0  0  0  0  0  0  0  0
   15.4341   -3.7808    0.0000 O   0  0  0  0  0  0  0  0  0  0  0  0
   15.4219   -1.1828    0.0000 O   0  0  0  0  0  0  0  0  0  0  0  0
   13.9097    1.4082    0.0000 O   0  0  0  0  0  0  0  0  0  0  0  0
   10.9097    1.3941    0.0000 O   0  0  0  0  0  0  0  0  0  0  0  0
    5.7308    2.6244    0.0000 O   0  0  0  0  0  0  0  0  0  0  0  0
   -0.7130    1.2950    0.0000 H   0  0  0  0  0  0  0  0  0  0  0  0
   -0.9886   -3.9025    0.0000 C   0  0  0  0  0  0  0  0  0  0  0  0
   -1.7324   -5.2051    0.0000 C   0  0  0  0  0  0  0  0  0  0  0  0
   -3.2324   -5.2121    0.0000 C   0  0  0  0  0  0  0  0  0  0  0  0
   -3.9885   -3.9166    0.0000 C   0  0  0  0  0  0  0  0  0  0  0  0
   -3.2446   -2.6141    0.0000 C   0  0  0  0  0  0  0  0  0  0  0  0
   -1.7447   -2.6070    0.0000 C   0  0  0  0  0  0  0  0  0  0  0  0
   -1.0008   -1.3045    0.0000 O   0  0  0  0  0  0  0  0  0  0  0  0
    0.4992   -1.2974    0.0000 C   0  0  0  0  0  0  0  0  0  0  0  0
   -5.4885   -3.9237    0.0000 O   0  0  0  0  0  0  0  0  0  0  0  0
   -6.2446   -2.6282    0.0000 C   0  0  0  0  0  0  0  0  0  0  0  0
   -3.9763   -6.5147    0.0000 O   0  0  0  0  0  0  0  0  0  0  0  0
   -3.2202   -7.8102    0.0000 C   0  0  0  0  0  0  0  0  0  0  0  0
  1  2  2  0  0  0  0
  1  6  1  0  0  0  0
  2  3  1  0  0  0  0
  3  4  2  0  0  0  0
  4  5  1  0  0  0  0
  5  6  2  0  0  0  0
  5 11  1  0  0  0  0
  6  7  1  0  0  0  0
  7  8  2  0  0  0  0
  8  9  1  0  0  0  0
  9 10  2  0  0  0  0
  9 11  1  0  0  0  0
  1 12  1  0  0  0  0
 13 14  1  0  0  0  0
 14 15  1  0  0  0  0
 16 14  1  1  0  0  0
 14 19  1  0  0  0  0
 16 17  1  0  0  0  0
 16 18  1  0  0  0  0
 20 19  1  1  0  0  0
 20 21  1  0  0  0  0
 20 25  1  0  0  0  0
 21 22  1  0  0  0  0
 21 30  1  6  0  0  0
 22 23  1  0  0  0  0
 22 29  1  1  0  0  0
 23 24  1  0  0  0  0
 23 28  1  6  0  0  0
 24 25  1  0  0  0  0
 24 26  1  1  0  0  0
 26 27  1  0  0  0  0
  2 17  1  0  0  0  0
  3 18  1  0  0  0  0
  4 31  1  0  0  0  0
  8 32  1  0  0  0  0
 33 34  1  0  0  0  0
 33 38  2  0  0  0  0
 34 35  2  0  0  0  0
 35 36  1  0  0  0  0
 35 43  1  0  0  0  0
 36 37  2  0  0  0  0
 36 41  1  0  0  0  0
 37 38  1  0  0  0  0
 38 39  1  0  0  0  0
 39 40  1  0  0  0  0
 41 42  1  0  0  0  0
 43 44  1  0  0  0  0
  7 40  1  0  0  0  0
M  END
> <score_KierFlex>
0.51629

$$$$
suggested molecule #205
 MOE2019            2D

 44 48  0  0  1  0  0  0  0  0999 V2000
    3.4992   -1.2833    0.0000 C   0  0  0  0  0  0  0  0  0  1  0  0
    4.9992   -1.2762    0.0000 C   0  0  0  0  0  0  0  0  0  2  0  0
    5.7430    0.0263    0.0000 C   0  0  0  0  0  0  0  0  0  3  0  0
    4.9869    1.3218    0.0000 C   0  0  0  0  0  0  0  0  0  4  0  0
    3.4870    1.3147    0.0000 C   0  0  0  0  0  0  0  0  0  5  0  0
    2.7431    0.0122    0.0000 C   0  0  0  0  0  0  0  0  0  6  0  0
    1.2431    0.0051    0.0000 C   0  0  0  0  0  0  0  0  0  7  0  0
    0.4870    1.3006    0.0000 C   0  0  0  0  0  0  0  0  0  8  0  0
    1.2309    2.6032    0.0000 C   0  0  0  0  0  0  0  0  0  9  0  0
    0.4748    3.8987    0.0000 O   0  0  0  0  0  0  0  0  0 10  0  0
    2.7309    2.6102    0.0000 O   0  0  0  0  0  0  0  0  0 11  0  0
    2.9041   -2.3253    0.0000 H   0  0  0  0  0  0  0  0  0  0  0  0
    9.9806   -3.2575    0.0000 C   0  0  0  0  0  0  0  0  0  0  0  0
    8.6781   -2.5136    0.0000 C   0  0  0  0  0  0  0  0  0  0  0  0
    7.9342   -3.8161    0.0000 C   0  0  0  0  0  0  0  0  0  0  0  0
    7.3755   -1.7697    0.0000 C   0  0  1  0  0  0  0  0  0  0  0  0
    6.0081   -2.3862    0.0000 C   0  0  0  0  0  0  0  0  0  0  0  0
    7.2117   -0.2787    0.0000 O   0  0  0  0  0  0  0  0  0  0  0  0
    9.4220   -1.2110    0.0000 O   0  0  0  0  0  0  0  0  0  0  0  0
   10.9219   -1.2040    0.0000 C   0  0  1  0  0  0  0  0  0  0  0  0
   11.6658    0.0986    0.0000 C   0  0  1  0  0  0  0  0  0  0  0  0
   13.1658    0.1056    0.0000 C   0  0  2  0  0  0  0  0  0  0  0  0
   13.9219   -1.1899    0.0000 C   0  0  1  0  0  0  0  0  0  0  0  0
   13.1780   -2.4924    0.0000 C   0  0  2  0  0  0  0  0  0  0  0  0
   11.6780   -2.4995    0.0000 O   0  0  0  0  0  0  0  0  0  0  0  0
   13.9341   -3.7879    0.0000 C   0  0  0  0  0  0  0  0  0  0  0  0
   15.4341   -3.7808    0.0000 O   0  0  0  0  0  0  0  0  0  0  0  0
   15.4219   -1.1828    0.0000 O   0  0  0  0  0  0  0  0  0  0  0  0
   13.9097    1.4082    0.0000 O   0  0  0  0  0  0  0  0  0  0  0  0
   10.9097    1.3941    0.0000 O   0  0  0  0  0  0  0  0  0  0  0  0
    5.7308    2.6244    0.0000 O   0  0  0  0  0  0  0  0  0  0  0  0
   -0.7130    1.2950    0.0000 H   0  0  0  0  0  0  0  0  0  0  0  0
   -0.9886   -3.9025    0.0000 C   0  0  0  0  0  0  0  0  0  0  0  0
   -1.7324   -5.2051    0.0000 C   0  0  0  0  0  0  0  0  0  0  0  0
   -3.2324   -5.2121    0.0000 C   0  0  0  0  0  0  0  0  0  0  0  0
   -3.9885   -3.9166    0.0000 C   0  0  0  0  0  0  0  0  0  0  0  0
   -3.2446   -2.6141    0.0000 C   0  0  0  0  0  0  0  0  0  0  0  0
   -1.7447   -2.6070    0.0000 C   0  0  0  0  0  0  0  0  0  0  0  0
   -1.0008   -1.3045    0.0000 O   0  0  0  0  0  0  0  0  0  0  0  0
    0.4992   -1.2974    0.0000 C   0  0  0  0  0  0  0  0  0  0  0  0
   -5.4885   -3.9237    0.0000 O   0  0  0  0  0  0  0  0  0  0  0  0
   -6.2446   -2.6282    0.0000 C   0  0  0  0  0  0  0  0  0  0  0  0
   -3.9763   -6.5147    0.0000 O   0  0  0  0  0  0  0  0  0  0  0  0
   -3.2202   -7.8102    0.0000 C   0  0  0  0  0  0  0  0  0  0  0  0
  1  2  2  0  0  0  0
  1  6  1  0  0  0  0
  2  3  1  0  0  0  0
  3  4  2  0  0  0  0
  4  5  1  0  0  0  0
  5  6  2  0  0  0  0
  5 11  1  0  0  0  0
  6  7  1  0  0  0  0
  7  8  2  0  0  0  0
  8  9  1  0  0  0  0
  9 10  2  0  0  0  0
  9 11  1  0  0  0  0
  1 12  1  0  0  0  0
 13 14  1  0  0  0  0
 14 15  1  0  0  0  0
 16 14  1  1  0  0  0
 14 19  1  0  0  0  0
 16 17  1  0  0  0  0
 16 18  1  0  0  0  0
 20 19  1  1  0  0  0
 20 21  1  0  0  0  0
 20 25  1  0  0  0  0
 21 22  1  0  0  0  0
 21 30  1  6  0  0  0
 22 23  1  0  0  0  0
 22 29  1  1  0  0  0
 23 24  1  0  0  0  0
 23 28  1  6  0  0  0
 24 25  1  0  0  0  0
 24 26  1  1  0  0  0
 26 27  1  0  0  0  0
  2 17  1  0  0  0  0
  3 18  1  0  0  0  0
  4 31  1  0  0  0  0
  8 32  1  0  0  0  0
 33 34  1  0  0  0  0
 33 38  2  0  0  0  0
 34 35  2  0  0  0  0
 35 36  1  0  0  0  0
 35 43  1  0  0  0  0
 36 37  2  0  0  0  0
 36 41  1  0  0  0  0
 37 38  1  0  0  0  0
 38 39  1  0  0  0  0
 39 40  1  0  0  0  0
 41 42  1  0  0  0  0
 43 44  1  0  0  0  0
  7 40  1  0  0  0  0
M  END
> <score_Kier3>
0.511473

$$$$
suggested molecule #206
 MOE2019            2D

 44 48  0  0  1  0  0  0  0  0999 V2000
    3.4992   -1.2833    0.0000 C   0  0  0  0  0  0  0  0  0  1  0  0
    4.9992   -1.2762    0.0000 C   0  0  0  0  0  0  0  0  0  2  0  0
    5.7430    0.0263    0.0000 C   0  0  0  0  0  0  0  0  0  3  0  0
    4.9869    1.3218    0.0000 C   0  0  0  0  0  0  0  0  0  4  0  0
    3.4870    1.3147    0.0000 C   0  0  0  0  0  0  0  0  0  5  0  0
    2.7431    0.0122    0.0000 C   0  0  0  0  0  0  0  0  0  6  0  0
    1.2431    0.0051    0.0000 C   0  0  0  0  0  0  0  0  0  7  0  0
    0.4870    1.3006    0.0000 C   0  0  0  0  0  0  0  0  0  8  0  0
    1.2309    2.6032    0.0000 C   0  0  0  0  0  0  0  0  0  9  0  0
    0.4748    3.8987    0.0000 O   0  0  0  0  0  0  0  0  0 10  0  0
    2.7309    2.6102    0.0000 O   0  0  0  0  0  0  0  0  0 11  0  0
    2.9041   -2.3253    0.0000 H   0  0  0  0  0  0  0  0  0  0  0  0
    9.9806   -3.2575    0.0000 C   0  0  0  0  0  0  0  0  0  0  0  0
    8.6781   -2.5136    0.0000 C   0  0  0  0  0  0  0  0  0  0  0  0
    7.9342   -3.8161    0.0000 C   0  0  0  0  0  0  0  0  0  0  0  0
    7.3755   -1.7697    0.0000 C   0  0  1  0  0  0  0  0  0  0  0  0
    6.0081   -2.3862    0.0000 C   0  0  0  0  0  0  0  0  0  0  0  0
    7.2117   -0.2787    0.0000 O   0  0  0  0  0  0  0  0  0  0  0  0
    9.4220   -1.2110    0.0000 O   0  0  0  0  0  0  0  0  0  0  0  0
   10.9219   -1.2040    0.0000 C   0  0  1  0  0  0  0  0  0  0  0  0
   11.6658    0.0986    0.0000 C   0  0  1  0  0  0  0  0  0  0  0  0
   13.1658    0.1056    0.0000 C   0  0  2  0  0  0  0  0  0  0  0  0
   13.9219   -1.1899    0.0000 C   0  0  1  0  0  0  0  0  0  0  0  0
   13.1780   -2.4924    0.0000 C   0  0  2  0  0  0  0  0  0  0  0  0
   11.6780   -2.4995    0.0000 O   0  0  0  0  0  0  0  0  0  0  0  0
   13.9341   -3.7879    0.0000 C   0  0  0  0  0  0  0  0  0  0  0  0
   15.4341   -3.7808    0.0000 O   0  0  0  0  0  0  0  0  0  0  0  0
   15.4219   -1.1828    0.0000 O   0  0  0  0  0  0  0  0  0  0  0  0
   13.9097    1.4082    0.0000 O   0  0  0  0  0  0  0  0  0  0  0  0
   10.9097    1.3941    0.0000 O   0  0  0  0  0  0  0  0  0  0  0  0
    5.7308    2.6244    0.0000 O   0  0  0  0  0  0  0  0  0  0  0  0
   -0.7130    1.2950    0.0000 H   0  0  0  0  0  0  0  0  0  0  0  0
   -0.9886   -3.9025    0.0000 C   0  0  0  0  0  0  0  0  0  0  0  0
   -1.7324   -5.2051    0.0000 C   0  0  0  0  0  0  0  0  0  0  0  0
   -3.2324   -5.2121    0.0000 C   0  0  0  0  0  0  0  0  0  0  0  0
   -3.9885   -3.9166    0.0000 C   0  0  0  0  0  0  0  0  0  0  0  0
   -3.2446   -2.6141    0.0000 C   0  0  0  0  0  0  0  0  0  0  0  0
   -1.7447   -2.6070    0.0000 C   0  0  0  0  0  0  0  0  0  0  0  0
   -1.0008   -1.3045    0.0000 O   0  0  0  0  0  0  0  0  0  0  0  0
    0.4992   -1.2974    0.0000 C   0  0  0  0  0  0  0  0  0  0  0  0
   -5.4885   -3.9237    0.0000 O   0  0  0  0  0  0  0  0  0  0  0  0
   -6.2446   -2.6282    0.0000 C   0  0  0  0  0  0  0  0  0  0  0  0
   -3.9763   -6.5147    0.0000 O   0  0  0  0  0  0  0  0  0  0  0  0
   -3.2202   -7.8102    0.0000 C   0  0  0  0  0  0  0  0  0  0  0  0
  1  2  2  0  0  0  0
  1  6  1  0  0  0  0
  2  3  1  0  0  0  0
  3  4  2  0  0  0  0
  4  5  1  0  0  0  0
  5  6  2  0  0  0  0
  5 11  1  0  0  0  0
  6  7  1  0  0  0  0
  7  8  2  0  0  0  0
  8  9  1  0  0  0  0
  9 10  2  0  0  0  0
  9 11  1  0  0  0  0
  1 12  1  0  0  0  0
 13 14  1  0  0  0  0
 14 15  1  0  0  0  0
 16 14  1  1  0  0  0
 14 19  1  0  0  0  0
 16 17  1  0  0  0  0
 16 18  1  0  0  0  0
 20 19  1  1  0  0  0
 20 21  1  0  0  0  0
 20 25  1  0  0  0  0
 21 22  1  0  0  0  0
 21 30  1  6  0  0  0
 22 23  1  0  0  0  0
 22 29  1  1  0  0  0
 23 24  1  0  0  0  0
 23 28  1  6  0  0  0
 24 25  1  0  0  0  0
 24 26  1  1  0  0  0
 26 27  1  0  0  0  0
  2 17  1  0  0  0  0
  3 18  1  0  0  0  0
  4 31  1  0  0  0  0
  8 32  1  0  0  0  0
 33 34  1  0  0  0  0
 33 38  2  0  0  0  0
 34 35  2  0  0  0  0
 35 36  1  0  0  0  0
 35 43  1  0  0  0  0
 36 37  2  0  0  0  0
 36 41  1  0  0  0  0
 37 38  1  0  0  0  0
 38 39  1  0  0  0  0
 39 40  1  0  0  0  0
 41 42  1  0  0  0  0
 43 44  1  0  0  0  0
  7 40  1  0  0  0  0
M  END
> <score_KierA3>
0.512124

$$$$
suggested molecule #207
 MOE2019            2D

 44 48  0  0  1  0  0  0  0  0999 V2000
    3.4992   -1.2833    0.0000 C   0  0  0  0  0  0  0  0  0  1  0  0
    4.9992   -1.2762    0.0000 C   0  0  0  0  0  0  0  0  0  2  0  0
    5.7430    0.0263    0.0000 C   0  0  0  0  0  0  0  0  0  3  0  0
    4.9869    1.3218    0.0000 C   0  0  0  0  0  0  0  0  0  4  0  0
    3.4870    1.3147    0.0000 C   0  0  0  0  0  0  0  0  0  5  0  0
    2.7431    0.0122    0.0000 C   0  0  0  0  0  0  0  0  0  6  0  0
    1.2431    0.0051    0.0000 C   0  0  0  0  0  0  0  0  0  7  0  0
    0.4870    1.3006    0.0000 C   0  0  0  0  0  0  0  0  0  8  0  0
    1.2309    2.6032    0.0000 C   0  0  0  0  0  0  0  0  0  9  0  0
    0.4748    3.8987    0.0000 O   0  0  0  0  0  0  0  0  0 10  0  0
    2.7309    2.6102    0.0000 O   0  0  0  0  0  0  0  0  0 11  0  0
    2.9041   -2.3253    0.0000 H   0  0  0  0  0  0  0  0  0  0  0  0
    9.9806   -3.2575    0.0000 C   0  0  0  0  0  0  0  0  0  0  0  0
    8.6781   -2.5136    0.0000 C   0  0  0  0  0  0  0  0  0  0  0  0
    7.9342   -3.8161    0.0000 C   0  0  0  0  0  0  0  0  0  0  0  0
    7.3755   -1.7697    0.0000 C   0  0  1  0  0  0  0  0  0  0  0  0
    6.0081   -2.3862    0.0000 C   0  0  0  0  0  0  0  0  0  0  0  0
    7.2117   -0.2787    0.0000 O   0  0  0  0  0  0  0  0  0  0  0  0
    9.4220   -1.2110    0.0000 O   0  0  0  0  0  0  0  0  0  0  0  0
   10.9219   -1.2040    0.0000 C   0  0  1  0  0  0  0  0  0  0  0  0
   11.6658    0.0986    0.0000 C   0  0  1  0  0  0  0  0  0  0  0  0
   13.1658    0.1056    0.0000 C   0  0  2  0  0  0  0  0  0  0  0  0
   13.9219   -1.1899    0.0000 C   0  0  1  0  0  0  0  0  0  0  0  0
   13.1780   -2.4924    0.0000 C   0  0  2  0  0  0  0  0  0  0  0  0
   11.6780   -2.4995    0.0000 O   0  0  0  0  0  0  0  0  0  0  0  0
   13.9341   -3.7879    0.0000 C   0  0  0  0  0  0  0  0  0  0  0  0
   15.4341   -3.7808    0.0000 O   0  0  0  0  0  0  0  0  0  0  0  0
   15.4219   -1.1828    0.0000 O   0  0  0  0  0  0  0  0  0  0  0  0
   13.9097    1.4082    0.0000 O   0  0  0  0  0  0  0  0  0  0  0  0
   10.9097    1.3941    0.0000 O   0  0  0  0  0  0  0  0  0  0  0  0
    5.7308    2.6244    0.0000 O   0  0  0  0  0  0  0  0  0  0  0  0
   -0.7130    1.2950    0.0000 H   0  0  0  0  0  0  0  0  0  0  0  0
   -0.9886   -3.9025    0.0000 C   0  0  0  0  0  0  0  0  0  0  0  0
   -1.7324   -5.2051    0.0000 C   0  0  0  0  0  0  0  0  0  0  0  0
   -3.2324   -5.2121    0.0000 C   0  0  0  0  0  0  0  0  0  0  0  0
   -3.9885   -3.9166    0.0000 C   0  0  0  0  0  0  0  0  0  0  0  0
   -3.2446   -2.6141    0.0000 C   0  0  0  0  0  0  0  0  0  0  0  0
   -1.7447   -2.6070    0.0000 C   0  0  0  0  0  0  0  0  0  0  0  0
   -1.0008   -1.3045    0.0000 O   0  0  0  0  0  0  0  0  0  0  0  0
    0.4992   -1.2974    0.0000 C   0  0  0  0  0  0  0  0  0  0  0  0
   -5.4885   -3.9237    0.0000 O   0  0  0  0  0  0  0  0  0  0  0  0
   -6.2446   -2.6282    0.0000 C   0  0  0  0  0  0  0  0  0  0  0  0
   -3.9763   -6.5147    0.0000 O   0  0  0  0  0  0  0  0  0  0  0  0
   -3.2202   -7.8102    0.0000 C   0  0  0  0  0  0  0  0  0  0  0  0
  1  2  2  0  0  0  0
  1  6  1  0  0  0  0
  2  3  1  0  0  0  0
  3  4  2  0  0  0  0
  4  5  1  0  0  0  0
  5  6  2  0  0  0  0
  5 11  1  0  0  0  0
  6  7  1  0  0  0  0
  7  8  2  0  0  0  0
  8  9  1  0  0  0  0
  9 10  2  0  0  0  0
  9 11  1  0  0  0  0
  1 12  1  0  0  0  0
 13 14  1  0  0  0  0
 14 15  1  0  0  0  0
 16 14  1  1  0  0  0
 14 19  1  0  0  0  0
 16 17  1  0  0  0  0
 16 18  1  0  0  0  0
 20 19  1  1  0  0  0
 20 21  1  0  0  0  0
 20 25  1  0  0  0  0
 21 22  1  0  0  0  0
 21 30  1  6  0  0  0
 22 23  1  0  0  0  0
 22 29  1  1  0  0  0
 23 24  1  0  0  0  0
 23 28  1  6  0  0  0
 24 25  1  0  0  0  0
 24 26  1  1  0  0  0
 26 27  1  0  0  0  0
  2 17  1  0  0  0  0
  3 18  1  0  0  0  0
  4 31  1  0  0  0  0
  8 32  1  0  0  0  0
 33 34  1  0  0  0  0
 33 38  2  0  0  0  0
 34 35  2  0  0  0  0
 35 36  1  0  0  0  0
 35 43  1  0  0  0  0
 36 37  2  0  0  0  0
 36 41  1  0  0  0  0
 37 38  1  0  0  0  0
 38 39  1  0  0  0  0
 39 40  1  0  0  0  0
 41 42  1  0  0  0  0
 43 44  1  0  0  0  0
  7 40  1  0  0  0  0
M  END
> <score_KierFlex>
0.516284

$$$$
suggested molecule #208
 MOE2019            2D

 33 36  0  0  0  0  0  0  0  0999 V2000
    3.4992   -1.2833    0.0000 C   0  0  0  0  0  0  0  0  0  1  0  0
    4.9992   -1.2762    0.0000 C   0  0  0  0  0  0  0  0  0  2  0  0
    5.7430    0.0263    0.0000 C   0  0  0  0  0  0  0  0  0  3  0  0
    4.9869    1.3218    0.0000 C   0  0  0  0  0  0  0  0  0  4  0  0
    3.4870    1.3147    0.0000 C   0  0  0  0  0  0  0  0  0  5  0  0
    2.7431    0.0122    0.0000 C   0  0  0  0  0  0  0  0  0  6  0  0
    1.2431    0.0051    0.0000 C   0  0  0  0  0  0  0  0  0  7  0  0
    0.4870    1.3006    0.0000 C   0  0  0  0  0  0  0  0  0  8  0  0
    1.2309    2.6032    0.0000 C   0  0  0  0  0  0  0  0  0  9  0  0
    0.4748    3.8987    0.0000 O   0  0  0  0  0  0  0  0  0 10  0  0
    2.7309    2.6102    0.0000 O   0  0  0  0  0  0  0  0  0 11  0  0
    2.9041   -2.3253    0.0000 H   0  0  0  0  0  0  0  0  0  0  0  0
    5.7553   -2.5717    0.0000 O   0  0  0  0  0  0  0  0  0  0  0  0
    7.2430    0.0334    0.0000 O   0  0  0  0  0  0  0  0  0  0  0  0
    7.9991   -1.2621    0.0000 C   0  0  0  0  0  0  0  0  0  0  0  0
    5.7308    2.6244    0.0000 C   0  0  0  0  0  0  0  0  0  0  0  0
    7.2308    2.6314    0.0000 C   0  0  0  0  0  0  0  0  0  0  0  0
    7.9747    3.9340    0.0000 C   0  0  0  0  0  0  0  0  0  0  0  0
    7.2186    5.2295    0.0000 C   0  0  0  0  0  0  0  0  0  0  0  0
    5.7186    5.2224    0.0000 C   0  0  0  0  0  0  0  0  0  0  0  0
    4.9747    3.9198    0.0000 O   0  0  0  0  0  0  0  0  0  0  0  0
    4.9625    6.5179    0.0000 C   0  0  0  0  0  0  0  0  0  0  0  0
    5.7064    7.8204    0.0000 O   0  0  0  0  0  0  0  0  0  0  0  0
    7.9625    6.5320    0.0000 O   0  0  0  0  0  0  0  0  0  0  0  0
    9.4747    3.9410    0.0000 O   0  0  0  0  0  0  0  0  0  0  0  0
    7.9869    1.3359    0.0000 O   0  0  0  0  0  0  0  0  0  0  0  0
   -0.7130    1.2950    0.0000 H   0  0  0  0  0  0  0  0  0  0  0  0
    0.4992   -1.2974    0.0000 C   0  0  0  0  0  0  0  0  0  0  0  0
   -1.0008   -1.3045    0.0000 C   0  0  0  0  0  0  0  0  0  0  0  0
   -1.7447   -2.6070    0.0000 C   0  0  0  0  0  0  0  0  0  0  0  0
   -0.9886   -3.9025    0.0000 C   0  0  0  0  0  0  0  0  0  0  0  0
    0.5114   -3.8955    0.0000 C   0  0  0  0  0  0  0  0  0  0  0  0
    1.2553   -2.5929    0.0000 C   0  0  0  0  0  0  0  0  0  0  0  0
  1  2  1  0  0  0  0
  1  6  2  0  0  0  0
  2  3  2  0  0  0  0
  3  4  1  0  0  0  0
  4  5  2  0  0  0  0
  5  6  1  0  0  0  0
  5 11  1  0  0  0  0
  6  7  1  0  0  0  0
  7  8  2  0  0  0  0
  8  9  1  0  0  0  0
  9 10  2  0  0  0  0
  9 11  1  0  0  0  0
  1 12  1  0  0  0  0
  2 13  1  0  0  0  0
 14 15  1  0  0  0  0
  3 14  1  0  0  0  0
 16 17  1  0  0  0  0
 16 21  1  0  0  0  0
 17 18  1  0  0  0  0
 17 26  1  0  0  0  0
 18 19  1  0  0  0  0
 18 25  1  0  0  0  0
 19 20  1  0  0  0  0
 19 24  1  0  0  0  0
 20 21  1  0  0  0  0
 20 22  1  0  0  0  0
 22 23  1  0  0  0  0
  4 16  1  0  0  0  0
  8 27  1  0  0  0  0
 28 29  1  0  0  0  0
 28 33  2  0  0  0  0
 29 30  2  0  0  0  0
 30 31  1  0  0  0  0
 31 32  2  0  0  0  0
 32 33  1  0  0  0  0
  7 28  1  0  0  0  0
M  END
> <score_KierA3>
0.512189

$$$$
suggested molecule #209
 MOE2019            2D

 23 25  0  0  0  0  0  0  0  0999 V2000
    3.4992   -1.2833    0.0000 C   0  0  0  0  0  0  0  0  0  1  0  0
    4.9992   -1.2762    0.0000 C   0  0  0  0  0  0  0  0  0  2  0  0
    5.7430    0.0263    0.0000 C   0  0  0  0  0  0  0  0  0  3  0  0
    4.9869    1.3218    0.0000 C   0  0  0  0  0  0  0  0  0  4  0  0
    3.4870    1.3147    0.0000 C   0  0  0  0  0  0  0  0  0  5  0  0
    2.7431    0.0122    0.0000 C   0  0  0  0  0  0  0  0  0  6  0  0
    1.2431    0.0051    0.0000 C   0  0  0  0  0  0  0  0  0  7  0  0
    0.4870    1.3006    0.0000 C   0  0  0  0  0  0  0  0  0  8  0  0
    1.2309    2.6032    0.0000 C   0  0  0  0  0  0  0  0  0  9  0  0
    0.4748    3.8987    0.0000 O   0  0  0  0  0  0  0  0  0 10  0  0
    2.7309    2.6102    0.0000 O   0  0  0  0  0  0  0  0  0 11  0  0
    2.9041   -2.3253    0.0000 H   0  0  0  0  0  0  0  0  0  0  0  0
    5.7553   -2.5717    0.0000 O   0  0  0  0  0  0  0  0  0  0  0  0
    7.2430    0.0334    0.0000 O   0  0  0  0  0  0  0  0  0  0  0  0
    7.9991   -1.2621    0.0000 C   0  0  0  0  0  0  0  0  0  0  0  0
    5.7308    2.6244    0.0000 O   0  0  0  0  0  0  0  0  0  0  0  0
   -0.7130    1.2950    0.0000 H   0  0  0  0  0  0  0  0  0  0  0  0
    0.4992   -1.2974    0.0000 C   0  0  0  0  0  0  0  0  0  0  0  0
   -1.0008   -1.3045    0.0000 C   0  0  0  0  0  0  0  0  0  0  0  0
   -1.7447   -2.6070    0.0000 C   0  0  0  0  0  0  0  0  0  0  0  0
   -0.9886   -3.9025    0.0000 C   0  0  0  0  0  0  0  0  0  0  0  0
    0.5114   -3.8955    0.0000 C   0  0  0  0  0  0  0  0  0  0  0  0
    1.2553   -2.5929    0.0000 C   0  0  0  0  0  0  0  0  0  0  0  0
  1  2  1  0  0  0  0
  1  6  2  0  0  0  0
  2  3  2  0  0  0  0
  3  4  1  0  0  0  0
  4  5  2  0  0  0  0
  5  6  1  0  0  0  0
  5 11  1  0  0  0  0
  6  7  1  0  0  0  0
  7  8  2  0  0  0  0
  8  9  1  0  0  0  0
  9 10  2  0  0  0  0
  9 11  1  0  0  0  0
  1 12  1  0  0  0  0
  2 13  1  0  0  0  0
 14 15  1  0  0  0  0
  3 14  1  0  0  0  0
  4 16  1  0  0  0  0
  8 17  1  0  0  0  0
 18 19  1  0  0  0  0
 18 23  2  0  0  0  0
 19 20  2  0  0  0  0
 20 21  1  0  0  0  0
 21 22  2  0  0  0  0
 22 23  1  0  0  0  0
  7 18  1  0  0  0  0
M  END
> <score_KierA3>
0.512242

$$$$
suggested molecule #210
 MOE2019            2D

 34 37  0  0  1  0  0  0  0  0999 V2000
    3.4992   -1.2833    0.0000 C   0  0  0  0  0  0  0  0  0  1  0  0
    4.9992   -1.2762    0.0000 C   0  0  0  0  0  0  0  0  0  2  0  0
    5.7430    0.0263    0.0000 C   0  0  0  0  0  0  0  0  0  3  0  0
    4.9869    1.3218    0.0000 C   0  0  0  0  0  0  0  0  0  4  0  0
    3.4870    1.3147    0.0000 C   0  0  0  0  0  0  0  0  0  5  0  0
    2.7431    0.0122    0.0000 C   0  0  0  0  0  0  0  0  0  6  0  0
    1.2431    0.0051    0.0000 C   0  0  0  0  0  0  0  0  0  7  0  0
    0.4870    1.3006    0.0000 C   0  0  0  0  0  0  0  0  0  8  0  0
    1.2309    2.6032    0.0000 C   0  0  0  0  0  0  0  0  0  9  0  0
    0.4748    3.8987    0.0000 O   0  0  0  0  0  0  0  0  0 10  0  0
    2.7309    2.6102    0.0000 O   0  0  0  0  0  0  0  0  0 11  0  0
    2.9041   -2.3253    0.0000 H   0  0  0  0  0  0  0  0  0  0  0  0
    5.7553   -2.5717    0.0000 O   0  0  0  0  0  0  0  0  0  0  0  0
    7.2430    0.0334    0.0000 O   0  0  0  0  0  0  0  0  0  0  0  0
    7.9991   -1.2621    0.0000 C   0  0  0  0  0  0  0  0  0  0  0  0
    5.7308    2.6244    0.0000 O   0  0  0  0  0  0  0  0  0  0  0  0
    7.2308    2.6314    0.0000 C   0  0  1  0  0  0  0  0  0  0  0  0
    7.9747    3.9340    0.0000 C   0  0  1  0  0  0  0  0  0  0  0  0
    9.4747    3.9410    0.0000 C   0  0  2  0  0  0  0  0  0  0  0  0
   10.2308    2.6455    0.0000 C   0  0  1  0  0  0  0  0  0  0  0  0
    9.4869    1.3430    0.0000 C   0  0  2  0  0  0  0  0  0  0  0  0
    7.9869    1.3359    0.0000 O   0  0  0  0  0  0  0  0  0  0  0  0
   10.2430    0.0475    0.0000 C   0  0  0  0  0  0  0  0  0  0  0  0
   11.7430    0.0545    0.0000 O   0  0  0  0  0  0  0  0  0  0  0  0
   11.7308    2.6526    0.0000 O   0  0  0  0  0  0  0  0  0  0  0  0
   10.2186    5.2436    0.0000 O   0  0  0  0  0  0  0  0  0  0  0  0
    7.2186    5.2295    0.0000 O   0  0  0  0  0  0  0  0  0  0  0  0
   -0.7130    1.2950    0.0000 H   0  0  0  0  0  0  0  0  0  0  0  0
    0.4992   -1.2974    0.0000 C   0  0  0  0  0  0  0  0  0  0  0  0
    1.2553   -2.5929    0.0000 C   0  0  0  0  0  0  0  0  0  0  0  0
    0.5114   -3.8955    0.0000 C   0  0  0  0  0  0  0  0  0  0  0  0
   -0.9886   -3.9025    0.0000 C   0  0  0  0  0  0  0  0  0  0  0  0
   -1.7447   -2.6070    0.0000 C   0  0  0  0  0  0  0  0  0  0  0  0
   -1.0008   -1.3045    0.0000 C   0  0  0  0  0  0  0  0  0  0  0  0
  1  2  1  0  0  0  0
  1  6  2  0  0  0  0
  2  3  2  0  0  0  0
  3  4  1  0  0  0  0
  4  5  2  0  0  0  0
  5  6  1  0  0  0  0
  5 11  1  0  0  0  0
  6  7  1  0  0  0  0
  7  8  2  0  0  0  0
  8  9  1  0  0  0  0
  9 10  2  0  0  0  0
  9 11  1  0  0  0  0
  1 12  1  0  0  0  0
  2 13  1  0  0  0  0
 14 15  1  0  0  0  0
  3 14  1  0  0  0  0
 17 16  1  6  0  0  0
 17 18  1  0  0  0  0
 17 22  1  0  0  0  0
 18 19  1  0  0  0  0
 18 27  1  1  0  0  0
 19 20  1  0  0  0  0
 19 26  1  6  0  0  0
 20 21  1  0  0  0  0
 20 25  1  1  0  0  0
 21 22  1  0  0  0  0
 21 23  1  6  0  0  0
 23 24  1  0  0  0  0
  4 16  1  0  0  0  0
  8 28  1  0  0  0  0
 29 30  1  0  0  0  0
 29 34  2  0  0  0  0
 30 31  2  0  0  0  0
 31 32  1  0  0  0  0
 32 33  2  0  0  0  0
 33 34  1  0  0  0  0
  7 29  1  0  0  0  0
M  END
> <score_KierA3>
0.512227

$$$$
suggested molecule #211
 MOE2019            2D

 31 34  0  0  0  0  0  0  0  0999 V2000
    3.4992   -1.2833    0.0000 C   0  0  0  0  0  0  0  0  0  1  0  0
    4.9992   -1.2762    0.0000 C   0  0  0  0  0  0  0  0  0  2  0  0
    5.7430    0.0263    0.0000 C   0  0  0  0  0  0  0  0  0  3  0  0
    4.9869    1.3218    0.0000 C   0  0  0  0  0  0  0  0  0  4  0  0
    3.4870    1.3147    0.0000 C   0  0  0  0  0  0  0  0  0  5  0  0
    2.7431    0.0122    0.0000 C   0  0  0  0  0  0  0  0  0  6  0  0
    1.2431    0.0051    0.0000 C   0  0  0  0  0  0  0  0  0  7  0  0
    0.4870    1.3006    0.0000 C   0  0  0  0  0  0  0  0  0  8  0  0
    1.2309    2.6032    0.0000 C   0  0  0  0  0  0  0  0  0  9  0  0
    0.4748    3.8987    0.0000 O   0  0  0  0  0  0  0  0  0 10  0  0
    2.7309    2.6102    0.0000 O   0  0  0  0  0  0  0  0  0 11  0  0
    2.9041   -2.3253    0.0000 H   0  0  0  0  0  0  0  0  0  0  0  0
    5.7553   -2.5717    0.0000 O   0  0  0  0  0  0  0  0  0  0  0  0
    7.2430    0.0334    0.0000 O   0  0  0  0  0  0  0  0  0  0  0  0
    7.9991   -1.2621    0.0000 C   0  0  0  0  0  0  0  0  0  0  0  0
    5.7186    5.2224    0.0000 C   0  0  0  0  0  0  0  0  0  0  0  0
    7.2186    5.2295    0.0000 C   0  0  0  0  0  0  0  0  0  0  0  0
    7.9747    3.9340    0.0000 C   0  0  0  0  0  0  0  0  0  0  0  0
    7.2308    2.6314    0.0000 C   0  0  0  0  0  0  0  0  0  0  0  0
    5.7308    2.6244    0.0000 C   0  0  0  0  0  0  0  0  0  0  0  0
    4.9747    3.9198    0.0000 O   0  0  0  0  0  0  0  0  0  0  0  0
    7.9869    1.3359    0.0000 O   0  0  0  0  0  0  0  0  0  0  0  0
    9.4747    3.9410    0.0000 O   0  0  0  0  0  0  0  0  0  0  0  0
    7.9625    6.5320    0.0000 O   0  0  0  0  0  0  0  0  0  0  0  0
   -0.7130    1.2950    0.0000 H   0  0  0  0  0  0  0  0  0  0  0  0
    0.4992   -1.2974    0.0000 C   0  0  0  0  0  0  0  0  0  0  0  0
    1.2553   -2.5929    0.0000 C   0  0  0  0  0  0  0  0  0  0  0  0
    0.5114   -3.8955    0.0000 C   0  0  0  0  0  0  0  0  0  0  0  0
   -0.9886   -3.9025    0.0000 C   0  0  0  0  0  0  0  0  0  0  0  0
   -1.7447   -2.6070    0.0000 C   0  0  0  0  0  0  0  0  0  0  0  0
   -1.0008   -1.3045    0.0000 C   0  0  0  0  0  0  0  0  0  0  0  0
  1  2  1  0  0  0  0
  1  6  2  0  0  0  0
  2  3  2  0  0  0  0
  3  4  1  0  0  0  0
  4  5  2  0  0  0  0
  5  6  1  0  0  0  0
  5 11  1  0  0  0  0
  6  7  1  0  0  0  0
  7  8  2  0  0  0  0
  8  9  1  0  0  0  0
  9 10  2  0  0  0  0
  9 11  1  0  0  0  0
  1 12  1  0  0  0  0
  2 13  1  0  0  0  0
 14 15  1  0  0  0  0
  3 14  1  0  0  0  0
 16 17  1  0  0  0  0
 16 21  1  0  0  0  0
 17 18  1  0  0  0  0
 17 24  1  0  0  0  0
 18 19  1  0  0  0  0
 18 23  1  0  0  0  0
 19 20  1  0  0  0  0
 19 22  1  0  0  0  0
 20 21  1  0  0  0  0
  4 20  1  0  0  0  0
  8 25  1  0  0  0  0
 26 27  1  0  0  0  0
 26 31  2  0  0  0  0
 27 28  2  0  0  0  0
 28 29  1  0  0  0  0
 29 30  2  0  0  0  0
 30 31  1  0  0  0  0
  7 26  1  0  0  0  0
M  END
> <score_KierA3>
0.512226

$$$$
suggested molecule #212
 MOE2019            2D

 44 48  0  0  0  0  0  0  0  0999 V2000
    3.4992   -1.2833    0.0000 C   0  0  0  0  0  0  0  0  0  1  0  0
    4.9992   -1.2762    0.0000 C   0  0  0  0  0  0  0  0  0  2  0  0
    5.7430    0.0263    0.0000 C   0  0  0  0  0  0  0  0  0  3  0  0
    4.9869    1.3218    0.0000 C   0  0  0  0  0  0  0  0  0  4  0  0
    3.4870    1.3147    0.0000 C   0  0  0  0  0  0  0  0  0  5  0  0
    2.7431    0.0122    0.0000 C   0  0  0  0  0  0  0  0  0  6  0  0
    1.2431    0.0051    0.0000 C   0  0  0  0  0  0  0  0  0  7  0  0
    0.4870    1.3006    0.0000 C   0  0  0  0  0  0  0  0  0  8  0  0
    1.2309    2.6032    0.0000 C   0  0  0  0  0  0  0  0  0  9  0  0
    0.4748    3.8987    0.0000 O   0  0  0  0  0  0  0  0  0 10  0  0
    2.7309    2.6102    0.0000 O   0  0  0  0  0  0  0  0  0 11  0  0
    2.9041   -2.3253    0.0000 H   0  0  0  0  0  0  0  0  0  0  0  0
    5.7553   -2.5717    0.0000 O   0  0  0  0  0  0  0  0  0  0  0  0
    7.2430    0.0334    0.0000 O   0  0  0  0  0  0  0  0  0  0  0  0
    7.9991   -1.2621    0.0000 C   0  0  0  0  0  0  0  0  0  0  0  0
    5.7308    2.6244    0.0000 C   0  0  0  0  0  0  0  0  0  0  0  0
    7.2308    2.6314    0.0000 C   0  0  0  0  0  0  0  0  0  0  0  0
    7.9747    3.9340    0.0000 C   0  0  0  0  0  0  0  0  0  0  0  0
    7.2186    5.2295    0.0000 C   0  0  0  0  0  0  0  0  0  0  0  0
    5.7186    5.2224    0.0000 C   0  0  0  0  0  0  0  0  0  0  0  0
    4.9747    3.9198    0.0000 O   0  0  0  0  0  0  0  0  0  0  0  0
    4.9625    6.5179    0.0000 C   0  0  0  0  0  0  0  0  0  0  0  0
    5.7064    7.8204    0.0000 O   0  0  0  0  0  0  0  0  0  0  0  0
    7.9625    6.5320    0.0000 O   0  0  0  0  0  0  0  0  0  0  0  0
    9.4747    3.9410    0.0000 O   0  0  0  0  0  0  0  0  0  0  0  0
    7.9869    1.3359    0.0000 O   0  0  0  0  0  0  0  0  0  0  0  0
    9.4869    1.3430    0.0000 C   0  0  0  0  0  0  0  0  0  0  0  0
   10.2430    0.0475    0.0000 C   0  0  0  0  0  0  0  0  0  0  0  0
   11.7430    0.0545    0.0000 C   0  0  0  0  0  0  0  0  0  0  0  0
   12.4869    1.3571    0.0000 C   0  0  0  0  0  0  0  0  0  0  0  0
   11.7308    2.6526    0.0000 C   0  0  0  0  0  0  0  0  0  0  0  0
   10.2308    2.6455    0.0000 O   0  0  0  0  0  0  0  0  0  0  0  0
   12.4746    3.9551    0.0000 C   0  0  0  0  0  0  0  0  0  0  0  0
   13.9746    3.9622    0.0000 O   0  0  0  0  0  0  0  0  0  0  0  0
   13.9868    1.3641    0.0000 O   0  0  0  0  0  0  0  0  0  0  0  0
   12.4991   -1.2410    0.0000 O   0  0  0  0  0  0  0  0  0  0  0  0
    9.4991   -1.2551    0.0000 O   0  0  0  0  0  0  0  0  0  0  0  0
   -0.7130    1.2950    0.0000 H   0  0  0  0  0  0  0  0  0  0  0  0
    0.4992   -1.2974    0.0000 C   0  0  0  0  0  0  0  0  0  0  0  0
   -1.0008   -1.3045    0.0000 C   0  0  0  0  0  0  0  0  0  0  0  0
   -1.7447   -2.6070    0.0000 C   0  0  0  0  0  0  0  0  0  0  0  0
   -0.9886   -3.9025    0.0000 C   0  0  0  0  0  0  0  0  0  0  0  0
    0.5114   -3.8955    0.0000 C   0  0  0  0  0  0  0  0  0  0  0  0
    1.2553   -2.5929    0.0000 C   0  0  0  0  0  0  0  0  0  0  0  0
  1  2  1  0  0  0  0
  1  6  2  0  0  0  0
  2  3  2  0  0  0  0
  3  4  1  0  0  0  0
  4  5  2  0  0  0  0
  5  6  1  0  0  0  0
  5 11  1  0  0  0  0
  6  7  1  0  0  0  0
  7  8  2  0  0  0  0
  8  9  1  0  0  0  0
  9 10  2  0  0  0  0
  9 11  1  0  0  0  0
  1 12  1  0  0  0  0
  2 13  1  0  0  0  0
 14 15  1  0  0  0  0
  3 14  1  0  0  0  0
 16 17  1  0  0  0  0
 16 21  1  0  0  0  0
 17 18  1  0  0  0  0
 17 26  1  0  0  0  0
 18 19  1  0  0  0  0
 18 25  1  0  0  0  0
 19 20  1  0  0  0  0
 19 24  1  0  0  0  0
 20 21  1  0  0  0  0
 20 22  1  0  0  0  0
 22 23  1  0  0  0  0
 26 27  1  0  0  0  0
 27 28  1  0  0  0  0
 27 32  1  0  0  0  0
 28 29  1  0  0  0  0
 28 37  1  0  0  0  0
 29 30  1  0  0  0  0
 29 36  1  0  0  0  0
 30 31  1  0  0  0  0
 30 35  1  0  0  0  0
 31 32  1  0  0  0  0
 31 33  1  0  0  0  0
 33 34  1  0  0  0  0
  4 16  1  0  0  0  0
  8 38  1  0  0  0  0
 39 40  1  0  0  0  0
 39 44  2  0  0  0  0
 40 41  2  0  0  0  0
 41 42  1  0  0  0  0
 42 43  2  0  0  0  0
 43 44  1  0  0  0  0
  7 39  1  0  0  0  0
M  END
> <score_KierA3>
0.51225

$$$$
suggested molecule #213
 MOE2019            2D

 44 48  0  0  1  0  0  0  0  0999 V2000
    3.4992   -1.2833    0.0000 C   0  0  0  0  0  0  0  0  0  1  0  0
    4.9992   -1.2762    0.0000 C   0  0  0  0  0  0  0  0  0  2  0  0
    5.7430    0.0263    0.0000 C   0  0  0  0  0  0  0  0  0  3  0  0
    4.9869    1.3218    0.0000 C   0  0  0  0  0  0  0  0  0  4  0  0
    3.4870    1.3147    0.0000 C   0  0  0  0  0  0  0  0  0  5  0  0
    2.7431    0.0122    0.0000 C   0  0  0  0  0  0  0  0  0  6  0  0
    1.2431    0.0051    0.0000 C   0  0  0  0  0  0  0  0  0  7  0  0
    0.4870    1.3006    0.0000 C   0  0  0  0  0  0  0  0  0  8  0  0
    1.2309    2.6032    0.0000 C   0  0  0  0  0  0  0  0  0  9  0  0
    0.4748    3.8987    0.0000 O   0  0  0  0  0  0  0  0  0 10  0  0
    2.7309    2.6102    0.0000 O   0  0  0  0  0  0  0  0  0 11  0  0
    2.9041   -2.3253    0.0000 H   0  0  0  0  0  0  0  0  0  0  0  0
    5.7553   -2.5717    0.0000 O   0  0  0  0  0  0  0  0  0  0  0  0
    7.2430    0.0334    0.0000 O   0  0  0  0  0  0  0  0  0  0  0  0
    7.9991   -1.2621    0.0000 C   0  0  0  0  0  0  0  0  0  0  0  0
    5.7308    2.6244    0.0000 C   0  0  0  0  0  0  0  0  0  0  0  0
    4.9747    3.9198    0.0000 C   0  0  1  0  0  0  0  0  0  0  0  0
    5.7186    5.2224    0.0000 C   0  0  2  0  0  0  0  0  0  0  0  0
    7.2186    5.2295    0.0000 C   0  0  1  0  0  0  0  0  0  0  0  0
    7.9747    3.9340    0.0000 C   0  0  2  0  0  0  0  0  0  0  0  0
    7.2308    2.6314    0.0000 O   0  0  0  0  0  0  0  0  0  0  0  0
    9.4747    3.9410    0.0000 C   0  0  0  0  0  0  0  0  0  0  0  0
   10.2308    2.6455    0.0000 O   0  0  0  0  0  0  0  0  0  0  0  0
    7.9625    6.5320    0.0000 O   0  0  0  0  0  0  0  0  0  0  0  0
    7.2064    7.8275    0.0000 C   0  0  1  0  0  0  0  0  0  0  0  0
    7.9502    9.1301    0.0000 C   0  0  1  0  0  0  0  0  0  0  0  0
    7.1941   10.4256    0.0000 C   0  0  2  0  0  0  0  0  0  0  0  0
    5.6942   10.4185    0.0000 C   0  0  1  0  0  0  0  0  0  0  0  0
    4.9503    9.1159    0.0000 C   0  0  2  0  0  0  0  0  0  0  0  0
    5.7064    7.8204    0.0000 O   0  0  0  0  0  0  0  0  0  0  0  0
    3.4503    9.1089    0.0000 C   0  0  0  0  0  0  0  0  0  0  0  0
    2.6942   10.4044    0.0000 O   0  0  0  0  0  0  0  0  0  0  0  0
    4.9381   11.7140    0.0000 O   0  0  0  0  0  0  0  0  0  0  0  0
    7.9380   11.7281    0.0000 O   0  0  0  0  0  0  0  0  0  0  0  0
    9.4502    9.1371    0.0000 O   0  0  0  0  0  0  0  0  0  0  0  0
    4.9625    6.5179    0.0000 O   0  0  0  0  0  0  0  0  0  0  0  0
    3.4747    3.9128    0.0000 O   0  0  0  0  0  0  0  0  0  0  0  0
   -0.7130    1.2950    0.0000 H   0  0  0  0  0  0  0  0  0  0  0  0
    0.4992   -1.2974    0.0000 C   0  0  0  0  0  0  0  0  0  0  0  0
    1.2553   -2.5929    0.0000 C   0  0  0  0  0  0  0  0  0  0  0  0
    0.5114   -3.8955    0.0000 C   0  0  0  0  0  0  0  0  0  0  0  0
   -0.9886   -3.9025    0.0000 C   0  0  0  0  0  0  0  0  0  0  0  0
   -1.7447   -2.6070    0.0000 C   0  0  0  0  0  0  0  0  0  0  0  0
   -1.0008   -1.3045    0.0000 C   0  0  0  0  0  0  0  0  0  0  0  0
  1  2  1  0  0  0  0
  1  6  2  0  0  0  0
  2  3  2  0  0  0  0
  3  4  1  0  0  0  0
  4  5  2  0  0  0  0
  5  6  1  0  0  0  0
  5 11  1  0  0  0  0
  6  7  1  0  0  0  0
  7  8  2  0  0  0  0
  8  9  1  0  0  0  0
  9 10  2  0  0  0  0
  9 11  1  0  0  0  0
  1 12  1  0  0  0  0
  2 13  1  0  0  0  0
 14 15  1  0  0  0  0
  3 14  1  0  0  0  0
 16 17  1  0  0  0  0
 16 21  1  0  0  0  0
 17 18  1  0  0  0  0
 17 37  1  1  0  0  0
 18 19  1  0  0  0  0
 18 36  1  6  0  0  0
 19 20  1  0  0  0  0
 19 24  1  1  0  0  0
 20 21  1  0  0  0  0
 20 22  1  6  0  0  0
 22 23  1  0  0  0  0
 25 24  1  1  0  0  0
 25 26  1  0  0  0  0
 25 30  1  0  0  0  0
 26 27  1  0  0  0  0
 26 35  1  6  0  0  0
 27 28  1  0  0  0  0
 27 34  1  1  0  0  0
 28 29  1  0  0  0  0
 28 33  1  6  0  0  0
 29 30  1  0  0  0  0
 29 31  1  1  0  0  0
 31 32  1  0  0  0  0
  4 16  1  0  0  0  0
  8 38  1  0  0  0  0
 39 40  1  0  0  0  0
 39 44  2  0  0  0  0
 40 41  2  0  0  0  0
 41 42  1  0  0  0  0
 42 43  2  0  0  0  0
 43 44  1  0  0  0  0
  7 39  1  0  0  0  0
M  END
> <score_KierA3>
0.51225

$$$$
suggested molecule #214
 MOE2019            2D

 24 26  0  0  0  0  0  0  0  0999 V2000
    3.4992   -1.2833    0.0000 C   0  0  0  0  0  0  0  0  0  1  0  0
    4.9992   -1.2762    0.0000 C   0  0  0  0  0  0  0  0  0  2  0  0
    5.7430    0.0263    0.0000 C   0  0  0  0  0  0  0  0  0  3  0  0
    4.9869    1.3218    0.0000 C   0  0  0  0  0  0  0  0  0  4  0  0
    3.4870    1.3147    0.0000 C   0  0  0  0  0  0  0  0  0  5  0  0
    2.7431    0.0122    0.0000 C   0  0  0  0  0  0  0  0  0  6  0  0
    1.2431    0.0051    0.0000 C   0  0  0  0  0  0  0  0  0  7  0  0
    0.4870    1.3006    0.0000 C   0  0  0  0  0  0  0  0  0  8  0  0
    1.2309    2.6032    0.0000 C   0  0  0  0  0  0  0  0  0  9  0  0
    0.4748    3.8987    0.0000 O   0  0  0  0  0  0  0  0  0 10  0  0
    2.7309    2.6102    0.0000 O   0  0  0  0  0  0  0  0  0 11  0  0
    2.9041   -2.3253    0.0000 H   0  0  0  0  0  0  0  0  0  0  0  0
    5.7553   -2.5717    0.0000 O   0  0  0  0  0  0  0  0  0  0  0  0
    7.2430    0.0334    0.0000 O   0  0  0  0  0  0  0  0  0  0  0  0
    7.9991   -1.2621    0.0000 C   0  0  0  0  0  0  0  0  0  0  0  0
    5.7308    2.6244    0.0000 O   0  0  0  0  0  0  0  0  0  0  0  0
    7.2308    2.6314    0.0000 C   0  0  0  0  0  0  0  0  0  0  0  0
   -0.7130    1.2950    0.0000 H   0  0  0  0  0  0  0  0  0  0  0  0
    0.4992   -1.2974    0.0000 C   0  0  0  0  0  0  0  0  0  0  0  0
    1.2553   -2.5929    0.0000 C   0  0  0  0  0  0  0  0  0  0  0  0
    0.5114   -3.8955    0.0000 C   0  0  0  0  0  0  0  0  0  0  0  0
   -0.9886   -3.9025    0.0000 C   0  0  0  0  0  0  0  0  0  0  0  0
   -1.7447   -2.6070    0.0000 C   0  0  0  0  0  0  0  0  0  0  0  0
   -1.0008   -1.3045    0.0000 C   0  0  0  0  0  0  0  0  0  0  0  0
  1  2  1  0  0  0  0
  1  6  2  0  0  0  0
  2  3  2  0  0  0  0
  3  4  1  0  0  0  0
  4  5  2  0  0  0  0
  5  6  1  0  0  0  0
  5 11  1  0  0  0  0
  6  7  1  0  0  0  0
  7  8  2  0  0  0  0
  8  9  1  0  0  0  0
  9 10  2  0  0  0  0
  9 11  1  0  0  0  0
  1 12  1  0  0  0  0
  2 13  1  0  0  0  0
 14 15  1  0  0  0  0
  3 14  1  0  0  0  0
 16 17  1  0  0  0  0
  4 16  1  0  0  0  0
  8 18  1  0  0  0  0
 19 20  1  0  0  0  0
 19 24  2  0  0  0  0
 20 21  2  0  0  0  0
 21 22  1  0  0  0  0
 22 23  2  0  0  0  0
 23 24  1  0  0  0  0
  7 19  1  0  0  0  0
M  END
> <score_Kier3>
0.511475

$$$$
suggested molecule #215
 MOE2019            2D

 24 26  0  0  0  0  0  0  0  0999 V2000
    3.4992   -1.2833    0.0000 C   0  0  0  0  0  0  0  0  0  1  0  0
    4.9992   -1.2762    0.0000 C   0  0  0  0  0  0  0  0  0  2  0  0
    5.7430    0.0263    0.0000 C   0  0  0  0  0  0  0  0  0  3  0  0
    4.9869    1.3218    0.0000 C   0  0  0  0  0  0  0  0  0  4  0  0
    3.4870    1.3147    0.0000 C   0  0  0  0  0  0  0  0  0  5  0  0
    2.7431    0.0122    0.0000 C   0  0  0  0  0  0  0  0  0  6  0  0
    1.2431    0.0051    0.0000 C   0  0  0  0  0  0  0  0  0  7  0  0
    0.4870    1.3006    0.0000 C   0  0  0  0  0  0  0  0  0  8  0  0
    1.2309    2.6032    0.0000 C   0  0  0  0  0  0  0  0  0  9  0  0
    0.4748    3.8987    0.0000 O   0  0  0  0  0  0  0  0  0 10  0  0
    2.7309    2.6102    0.0000 O   0  0  0  0  0  0  0  0  0 11  0  0
    2.9041   -2.3253    0.0000 H   0  0  0  0  0  0  0  0  0  0  0  0
    5.7553   -2.5717    0.0000 O   0  0  0  0  0  0  0  0  0  0  0  0
    7.2430    0.0334    0.0000 O   0  0  0  0  0  0  0  0  0  0  0  0
    7.9991   -1.2621    0.0000 C   0  0  0  0  0  0  0  0  0  0  0  0
    5.7308    2.6244    0.0000 O   0  0  0  0  0  0  0  0  0  0  0  0
    7.2308    2.6314    0.0000 C   0  0  0  0  0  0  0  0  0  0  0  0
   -0.7130    1.2950    0.0000 H   0  0  0  0  0  0  0  0  0  0  0  0
    0.4992   -1.2974    0.0000 C   0  0  0  0  0  0  0  0  0  0  0  0
    1.2553   -2.5929    0.0000 C   0  0  0  0  0  0  0  0  0  0  0  0
    0.5114   -3.8955    0.0000 C   0  0  0  0  0  0  0  0  0  0  0  0
   -0.9886   -3.9025    0.0000 C   0  0  0  0  0  0  0  0  0  0  0  0
   -1.7447   -2.6070    0.0000 C   0  0  0  0  0  0  0  0  0  0  0  0
   -1.0008   -1.3045    0.0000 C   0  0  0  0  0  0  0  0  0  0  0  0
  1  2  1  0  0  0  0
  1  6  2  0  0  0  0
  2  3  2  0  0  0  0
  3  4  1  0  0  0  0
  4  5  2  0  0  0  0
  5  6  1  0  0  0  0
  5 11  1  0  0  0  0
  6  7  1  0  0  0  0
  7  8  2  0  0  0  0
  8  9  1  0  0  0  0
  9 10  2  0  0  0  0
  9 11  1  0  0  0  0
  1 12  1  0  0  0  0
  2 13  1  0  0  0  0
 14 15  1  0  0  0  0
  3 14  1  0  0  0  0
 16 17  1  0  0  0  0
  4 16  1  0  0  0  0
  8 18  1  0  0  0  0
 19 20  1  0  0  0  0
 19 24  2  0  0  0  0
 20 21  2  0  0  0  0
 21 22  1  0  0  0  0
 22 23  2  0  0  0  0
 23 24  1  0  0  0  0
  7 19  1  0  0  0  0
M  END
> <score_KierA3>
0.512348

$$$$
suggested molecule #216
 MOE2019            2D

 32 35  0  0  1  0  0  0  0  0999 V2000
    3.4992   -1.2833    0.0000 C   0  0  0  0  0  0  0  0  0  1  0  0
    4.9992   -1.2762    0.0000 C   0  0  0  0  0  0  0  0  0  2  0  0
    5.7430    0.0263    0.0000 C   0  0  0  0  0  0  0  0  0  3  0  0
    4.9869    1.3218    0.0000 C   0  0  0  0  0  0  0  0  0  4  0  0
    3.4870    1.3147    0.0000 C   0  0  0  0  0  0  0  0  0  5  0  0
    2.7431    0.0122    0.0000 C   0  0  0  0  0  0  0  0  0  6  0  0
    1.2431    0.0051    0.0000 C   0  0  0  0  0  0  0  0  0  7  0  0
    0.4870    1.3006    0.0000 C   0  0  0  0  0  0  0  0  0  8  0  0
    1.2309    2.6032    0.0000 C   0  0  0  0  0  0  0  0  0  9  0  0
    0.4748    3.8987    0.0000 O   0  0  0  0  0  0  0  0  0 10  0  0
    2.7309    2.6102    0.0000 O   0  0  0  0  0  0  0  0  0 11  0  0
    2.9041   -2.3253    0.0000 H   0  0  0  0  0  0  0  0  0  0  0  0
    5.7553   -2.5717    0.0000 O   0  0  0  0  0  0  0  0  0  0  0  0
    7.2430    0.0334    0.0000 O   0  0  0  0  0  0  0  0  0  0  0  0
    7.9991   -1.2621    0.0000 C   0  0  0  0  0  0  0  0  0  0  0  0
    4.9625    6.5179    0.0000 C   0  0  0  0  0  0  0  0  0  0  0  0
    5.7186    5.2224    0.0000 C   0  0  1  0  0  0  0  0  0  0  0  0
    7.2186    5.2295    0.0000 C   0  0  1  0  0  0  0  0  0  0  0  0
    7.9747    3.9340    0.0000 C   0  0  2  0  0  0  0  0  0  0  0  0
    7.2308    2.6314    0.0000 C   0  0  2  0  0  0  0  0  0  0  0  0
    5.7308    2.6244    0.0000 C   0  0  0  0  0  0  0  0  0  0  0  0
    4.9747    3.9198    0.0000 O   0  0  0  0  0  0  0  0  0  0  0  0
    7.9869    1.3359    0.0000 O   0  0  0  0  0  0  0  0  0  0  0  0
    9.4747    3.9410    0.0000 O   0  0  0  0  0  0  0  0  0  0  0  0
    7.9625    6.5320    0.0000 O   0  0  0  0  0  0  0  0  0  0  0  0
   -0.7130    1.2950    0.0000 H   0  0  0  0  0  0  0  0  0  0  0  0
    0.4992   -1.2974    0.0000 C   0  0  0  0  0  0  0  0  0  0  0  0
    1.2553   -2.5929    0.0000 C   0  0  0  0  0  0  0  0  0  0  0  0
    0.5114   -3.8955    0.0000 C   0  0  0  0  0  0  0  0  0  0  0  0
   -0.9886   -3.9025    0.0000 C   0  0  0  0  0  0  0  0  0  0  0  0
   -1.7447   -2.6070    0.0000 C   0  0  0  0  0  0  0  0  0  0  0  0
   -1.0008   -1.3045    0.0000 C   0  0  0  0  0  0  0  0  0  0  0  0
  1  2  1  0  0  0  0
  1  6  2  0  0  0  0
  2  3  2  0  0  0  0
  3  4  1  0  0  0  0
  4  5  2  0  0  0  0
  5  6  1  0  0  0  0
  5 11  1  0  0  0  0
  6  7  1  0  0  0  0
  7  8  2  0  0  0  0
  8  9  1  0  0  0  0
  9 10  2  0  0  0  0
  9 11  1  0  0  0  0
  1 12  1  0  0  0  0
  2 13  1  0  0  0  0
 14 15  1  0  0  0  0
  3 14  1  0  0  0  0
 17 16  1  1  0  0  0
 17 18  1  0  0  0  0
 17 22  1  0  0  0  0
 18 19  1  0  0  0  0
 18 25  1  6  0  0  0
 19 20  1  0  0  0  0
 19 24  1  1  0  0  0
 20 21  1  0  0  0  0
 20 23  1  1  0  0  0
 21 22  1  0  0  0  0
  4 21  1  0  0  0  0
  8 26  1  0  0  0  0
 27 28  1  0  0  0  0
 27 32  2  0  0  0  0
 28 29  2  0  0  0  0
 29 30  1  0  0  0  0
 30 31  2  0  0  0  0
 31 32  1  0  0  0  0
  7 27  1  0  0  0  0
M  END
> <score_KierA3>
0.51226

$$$$
suggested molecule #217
 MOE2019            2D

 43 47  0  0  1  0  0  0  0  0999 V2000
    3.4992   -1.2833    0.0000 C   0  0  0  0  0  0  0  0  0  1  0  0
    4.9992   -1.2762    0.0000 C   0  0  0  0  0  0  0  0  0  2  0  0
    5.7430    0.0263    0.0000 C   0  0  0  0  0  0  0  0  0  3  0  0
    4.9869    1.3218    0.0000 C   0  0  0  0  0  0  0  0  0  4  0  0
    3.4870    1.3147    0.0000 C   0  0  0  0  0  0  0  0  0  5  0  0
    2.7431    0.0122    0.0000 C   0  0  0  0  0  0  0  0  0  6  0  0
    1.2431    0.0051    0.0000 C   0  0  0  0  0  0  0  0  0  7  0  0
    0.4870    1.3006    0.0000 C   0  0  0  0  0  0  0  0  0  8  0  0
    1.2309    2.6032    0.0000 C   0  0  0  0  0  0  0  0  0  9  0  0
    0.4748    3.8987    0.0000 O   0  0  0  0  0  0  0  0  0 10  0  0
    2.7309    2.6102    0.0000 O   0  0  0  0  0  0  0  0  0 11  0  0
    2.9041   -2.3253    0.0000 H   0  0  0  0  0  0  0  0  0  0  0  0
    5.7553   -2.5717    0.0000 O   0  0  0  0  0  0  0  0  0  0  0  0
    7.2430    0.0334    0.0000 O   0  0  0  0  0  0  0  0  0  0  0  0
    7.9991   -1.2621    0.0000 C   0  0  0  0  0  0  0  0  0  0  0  0
   12.4746    3.9551    0.0000 C   0  0  0  0  0  0  0  0  0  0  0  0
   11.7308    2.6526    0.0000 C   0  0  1  0  0  0  0  0  0  0  0  0
   12.4869    1.3571    0.0000 C   0  0  1  0  0  0  0  0  0  0  0  0
   11.7430    0.0545    0.0000 C   0  0  2  0  0  0  0  0  0  0  0  0
   10.2430    0.0475    0.0000 C   0  0  2  0  0  0  0  0  0  0  0  0
    9.4869    1.3430    0.0000 C   0  0  1  0  0  0  0  0  0  0  0  0
   10.2308    2.6455    0.0000 O   0  0  0  0  0  0  0  0  0  0  0  0
    7.9869    1.3359    0.0000 O   0  0  0  0  0  0  0  0  0  0  0  0
    7.2308    2.6314    0.0000 C   0  0  2  0  0  0  0  0  0  0  0  0
    7.9747    3.9340    0.0000 C   0  0  2  0  0  0  0  0  0  0  0  0
    7.2186    5.2295    0.0000 C   0  0  1  0  0  0  0  0  0  0  0  0
    5.7186    5.2224    0.0000 C   0  0  2  0  0  0  0  0  0  0  0  0
    4.9747    3.9198    0.0000 O   0  0  0  0  0  0  0  0  0  0  0  0
    5.7308    2.6244    0.0000 C   0  0  0  0  0  0  0  0  0  0  0  0
    4.9625    6.5179    0.0000 C   0  0  0  0  0  0  0  0  0  0  0  0
    5.7064    7.8204    0.0000 O   0  0  0  0  0  0  0  0  0  0  0  0
    7.9625    6.5320    0.0000 O   0  0  0  0  0  0  0  0  0  0  0  0
    9.4747    3.9410    0.0000 O   0  0  0  0  0  0  0  0  0  0  0  0
    9.4991   -1.2551    0.0000 O   0  0  0  0  0  0  0  0  0  0  0  0
   12.4991   -1.2410    0.0000 O   0  0  0  0  0  0  0  0  0  0  0  0
   13.9868    1.3641    0.0000 O   0  0  0  0  0  0  0  0  0  0  0  0
   -0.7130    1.2950    0.0000 H   0  0  0  0  0  0  0  0  0  0  0  0
    0.4992   -1.2974    0.0000 C   0  0  0  0  0  0  0  0  0  0  0  0
   -1.0008   -1.3045    0.0000 C   0  0  0  0  0  0  0  0  0  0  0  0
   -1.7447   -2.6070    0.0000 C   0  0  0  0  0  0  0  0  0  0  0  0
   -0.9886   -3.9025    0.0000 C   0  0  0  0  0  0  0  0  0  0  0  0
    0.5114   -3.8955    0.0000 C   0  0  0  0  0  0  0  0  0  0  0  0
    1.2553   -2.5929    0.0000 C   0  0  0  0  0  0  0  0  0  0  0  0
  1  2  1  0  0  0  0
  1  6  2  0  0  0  0
  2  3  2  0  0  0  0
  3  4  1  0  0  0  0
  4  5  2  0  0  0  0
  5  6  1  0  0  0  0
  5 11  1  0  0  0  0
  6  7  1  0  0  0  0
  7  8  2  0  0  0  0
  8  9  1  0  0  0  0
  9 10  2  0  0  0  0
  9 11  1  0  0  0  0
  1 12  1  0  0  0  0
  2 13  1  0  0  0  0
 14 15  1  0  0  0  0
  3 14  1  0  0  0  0
 17 16  1  6  0  0  0
 17 18  1  0  0  0  0
 17 22  1  0  0  0  0
 18 19  1  0  0  0  0
 18 36  1  1  0  0  0
 19 20  1  0  0  0  0
 19 35  1  6  0  0  0
 20 21  1  0  0  0  0
 20 34  1  6  0  0  0
 21 22  1  0  0  0  0
 21 23  1  1  0  0  0
 24 23  1  6  0  0  0
 24 25  1  0  0  0  0
 24 29  1  0  0  0  0
 25 26  1  0  0  0  0
 25 33  1  1  0  0  0
 26 27  1  0  0  0  0
 26 32  1  6  0  0  0
 27 28  1  0  0  0  0
 27 30  1  1  0  0  0
 28 29  1  0  0  0  0
 30 31  1  0  0  0  0
  4 29  1  0  0  0  0
  8 37  1  0  0  0  0
 38 39  1  0  0  0  0
 38 43  2  0  0  0  0
 39 40  2  0  0  0  0
 40 41  1  0  0  0  0
 41 42  2  0  0  0  0
 42 43  1  0  0  0  0
  7 38  1  0  0  0  0
M  END
> <score_KierA3>
0.512253

$$$$
suggested molecule #218
 MOE2019            2D

 41 44  0  0  1  0  0  0  0  0999 V2000
    3.4992   -1.2833    0.0000 C   0  0  0  0  0  0  0  0  0  1  0  0
    4.9992   -1.2762    0.0000 C   0  0  0  0  0  0  0  0  0  2  0  0
    5.7430    0.0263    0.0000 C   0  0  0  0  0  0  0  0  0  3  0  0
    4.9869    1.3218    0.0000 C   0  0  0  0  0  0  0  0  0  4  0  0
    3.4870    1.3147    0.0000 C   0  0  0  0  0  0  0  0  0  5  0  0
    2.7431    0.0122    0.0000 C   0  0  0  0  0  0  0  0  0  6  0  0
    1.2431    0.0051    0.0000 C   0  0  0  0  0  0  0  0  0  7  0  0
    0.4870    1.3006    0.0000 C   0  0  0  0  0  0  0  0  0  8  0  0
    1.2309    2.6032    0.0000 C   0  0  0  0  0  0  0  0  0  9  0  0
    0.4748    3.8987    0.0000 O   0  0  0  0  0  0  0  0  0 10  0  0
    2.7309    2.6102    0.0000 O   0  0  0  0  0  0  0  0  0 11  0  0
    2.9041   -2.3253    0.0000 H   0  0  0  0  0  0  0  0  0  0  0  0
    5.7553   -2.5717    0.0000 O   0  0  0  0  0  0  0  0  0  0  0  0
    7.2430    0.0334    0.0000 O   0  0  0  0  0  0  0  0  0  0  0  0
    7.9991   -1.2621    0.0000 C   0  0  0  0  0  0  0  0  0  0  0  0
    9.2772    3.1901    0.0000 C   0  0  0  0  0  0  0  0  0  0  0  0
    7.9747    3.9340    0.0000 C   0  0  0  0  0  0  0  0  0  0  0  0
    7.2308    2.6314    0.0000 C   0  0  1  0  0  0  0  0  0  0  0  0
    5.7308    2.6244    0.0000 C   0  0  0  0  0  0  0  0  0  0  0  0
    6.6721    4.6778    0.0000 O   0  0  0  0  0  0  0  0  0  0  0  0
    4.9747    3.9198    0.0000 O   0  0  0  0  0  0  0  0  0  0  0  0
    7.9869    1.3359    0.0000 O   0  0  0  0  0  0  0  0  0  0  0  0
    9.4869    1.3430    0.0000 C   0  0  1  0  0  0  0  0  0  0  0  0
   10.2430    0.0475    0.0000 C   0  0  1  0  0  0  0  0  0  0  0  0
   11.7430    0.0545    0.0000 C   0  0  2  0  0  0  0  0  0  0  0  0
   12.4869    1.3571    0.0000 C   0  0  1  0  0  0  0  0  0  0  0  0
   11.7308    2.6526    0.0000 C   0  0  2  0  0  0  0  0  0  0  0  0
   10.2308    2.6455    0.0000 O   0  0  0  0  0  0  0  0  0  0  0  0
   12.4746    3.9551    0.0000 C   0  0  0  0  0  0  0  0  0  0  0  0
   13.9746    3.9622    0.0000 O   0  0  0  0  0  0  0  0  0  0  0  0
   13.9868    1.3641    0.0000 O   0  0  0  0  0  0  0  0  0  0  0  0
   12.4991   -1.2410    0.0000 O   0  0  0  0  0  0  0  0  0  0  0  0
    9.4991   -1.2551    0.0000 O   0  0  0  0  0  0  0  0  0  0  0  0
    8.7186    5.2365    0.0000 C   0  0  0  0  0  0  0  0  0  0  0  0
   -0.7130    1.2950    0.0000 H   0  0  0  0  0  0  0  0  0  0  0  0
    0.4992   -1.2974    0.0000 C   0  0  0  0  0  0  0  0  0  0  0  0
    1.2553   -2.5929    0.0000 C   0  0  0  0  0  0  0  0  0  0  0  0
    0.5114   -3.8955    0.0000 C   0  0  0  0  0  0  0  0  0  0  0  0
   -0.9886   -3.9025    0.0000 C   0  0  0  0  0  0  0  0  0  0  0  0
   -1.7447   -2.6070    0.0000 C   0  0  0  0  0  0  0  0  0  0  0  0
   -1.0008   -1.3045    0.0000 C   0  0  0  0  0  0  0  0  0  0  0  0
  1  2  1  0  0  0  0
  1  6  2  0  0  0  0
  2  3  2  0  0  0  0
  3  4  1  0  0  0  0
  4  5  2  0  0  0  0
  5  6  1  0  0  0  0
  5 11  1  0  0  0  0
  6  7  1  0  0  0  0
  7  8  2  0  0  0  0
  8  9  1  0  0  0  0
  9 10  2  0  0  0  0
  9 11  1  0  0  0  0
  1 12  1  0  0  0  0
  2 13  1  0  0  0  0
 14 15  1  0  0  0  0
  3 14  1  0  0  0  0
 16 17  1  0  0  0  0
 17 18  1  0  0  0  0
 17 20  1  0  0  0  0
 17 34  1  0  0  0  0
 18 19  1  0  0  0  0
 18 22  1  6  0  0  0
 19 21  1  0  0  0  0
 23 22  1  1  0  0  0
 23 24  1  0  0  0  0
 23 28  1  0  0  0  0
 24 25  1  0  0  0  0
 24 33  1  6  0  0  0
 25 26  1  0  0  0  0
 25 32  1  1  0  0  0
 26 27  1  0  0  0  0
 26 31  1  6  0  0  0
 27 28  1  0  0  0  0
 27 29  1  1  0  0  0
 29 30  1  0  0  0  0
  4 19  1  0  0  0  0
  8 35  1  0  0  0  0
 36 37  1  0  0  0  0
 36 41  2  0  0  0  0
 37 38  2  0  0  0  0
 38 39  1  0  0  0  0
 39 40  2  0  0  0  0
 40 41  1  0  0  0  0
  7 36  1  0  0  0  0
M  END
> <score_KierA3>
0.512287

$$$$
suggested molecule #219
 MOE2019            2D

 40 43  0  0  1  0  0  0  0  0999 V2000
    3.4992   -1.2833    0.0000 C   0  0  0  0  0  0  0  0  0  1  0  0
    4.9992   -1.2762    0.0000 C   0  0  0  0  0  0  0  0  0  2  0  0
    5.7430    0.0263    0.0000 C   0  0  0  0  0  0  0  0  0  3  0  0
    4.9869    1.3218    0.0000 C   0  0  0  0  0  0  0  0  0  4  0  0
    3.4870    1.3147    0.0000 C   0  0  0  0  0  0  0  0  0  5  0  0
    2.7431    0.0122    0.0000 C   0  0  0  0  0  0  0  0  0  6  0  0
    1.2431    0.0051    0.0000 C   0  0  0  0  0  0  0  0  0  7  0  0
    0.4870    1.3006    0.0000 C   0  0  0  0  0  0  0  0  0  8  0  0
    1.2309    2.6032    0.0000 C   0  0  0  0  0  0  0  0  0  9  0  0
    0.4748    3.8987    0.0000 O   0  0  0  0  0  0  0  0  0 10  0  0
    2.7309    2.6102    0.0000 O   0  0  0  0  0  0  0  0  0 11  0  0
    2.9041   -2.3253    0.0000 H   0  0  0  0  0  0  0  0  0  0  0  0
    5.7553   -2.5717    0.0000 O   0  0  0  0  0  0  0  0  0  0  0  0
    7.2430    0.0334    0.0000 O   0  0  0  0  0  0  0  0  0  0  0  0
    7.9991   -1.2621    0.0000 C   0  0  0  0  0  0  0  0  0  0  0  0
    9.2772    3.1901    0.0000 C   0  0  0  0  0  0  0  0  0  0  0  0
    7.9747    3.9340    0.0000 C   0  0  0  0  0  0  0  0  0  0  0  0
    6.6721    4.6778    0.0000 C   0  0  0  0  0  0  0  0  0  0  0  0
    7.2308    2.6314    0.0000 C   0  0  0  0  0  0  0  0  0  0  0  0
    5.7308    2.6244    0.0000 C   0  0  0  0  0  0  0  0  0  0  0  0
    7.9869    1.3359    0.0000 O   0  0  0  0  0  0  0  0  0  0  0  0
    8.7186    5.2365    0.0000 O   0  0  0  0  0  0  0  0  0  0  0  0
   10.2186    5.2436    0.0000 C   0  0  1  0  0  0  0  0  0  0  0  0
   10.9624    6.5461    0.0000 C   0  0  1  0  0  0  0  0  0  0  0  0
   12.4624    6.5532    0.0000 C   0  0  2  0  0  0  0  0  0  0  0  0
   13.2185    5.2577    0.0000 C   0  0  1  0  0  0  0  0  0  0  0  0
   12.4746    3.9551    0.0000 C   0  0  2  0  0  0  0  0  0  0  0  0
   10.9747    3.9481    0.0000 O   0  0  0  0  0  0  0  0  0  0  0  0
   13.2307    2.6596    0.0000 C   0  0  0  0  0  0  0  0  0  0  0  0
   14.7307    2.6667    0.0000 O   0  0  0  0  0  0  0  0  0  0  0  0
   14.7185    5.2647    0.0000 O   0  0  0  0  0  0  0  0  0  0  0  0
   13.2063    7.8557    0.0000 O   0  0  0  0  0  0  0  0  0  0  0  0
   10.2063    7.8416    0.0000 O   0  0  0  0  0  0  0  0  0  0  0  0
   -0.7130    1.2950    0.0000 H   0  0  0  0  0  0  0  0  0  0  0  0
    0.4992   -1.2974    0.0000 C   0  0  0  0  0  0  0  0  0  0  0  0
   -1.0008   -1.3045    0.0000 C   0  0  0  0  0  0  0  0  0  0  0  0
   -1.7447   -2.6070    0.0000 C   0  0  0  0  0  0  0  0  0  0  0  0
   -0.9886   -3.9025    0.0000 C   0  0  0  0  0  0  0  0  0  0  0  0
    0.5114   -3.8955    0.0000 C   0  0  0  0  0  0  0  0  0  0  0  0
    1.2553   -2.5929    0.0000 C   0  0  0  0  0  0  0  0  0  0  0  0
  1  2  1  0  0  0  0
  1  6  2  0  0  0  0
  2  3  2  0  0  0  0
  3  4  1  0  0  0  0
  4  5  2  0  0  0  0
  5  6  1  0  0  0  0
  5 11  1  0  0  0  0
  6  7  1  0  0  0  0
  7  8  2  0  0  0  0
  8  9  1  0  0  0  0
  9 10  2  0  0  0  0
  9 11  1  0  0  0  0
  1 12  1  0  0  0  0
  2 13  1  0  0  0  0
 14 15  1  0  0  0  0
  3 14  1  0  0  0  0
 16 17  1  0  0  0  0
 17 18  1  0  0  0  0
 17 19  1  0  0  0  0
 17 22  1  0  0  0  0
 19 20  1  0  0  0  0
 19 21  1  0  0  0  0
 23 22  1  1  0  0  0
 23 24  1  0  0  0  0
 23 28  1  0  0  0  0
 24 25  1  0  0  0  0
 24 33  1  6  0  0  0
 25 26  1  0  0  0  0
 25 32  1  1  0  0  0
 26 27  1  0  0  0  0
 26 31  1  6  0  0  0
 27 28  1  0  0  0  0
 27 29  1  1  0  0  0
 29 30  1  0  0  0  0
  4 20  1  0  0  0  0
  8 34  1  0  0  0  0
 35 36  1  0  0  0  0
 35 40  2  0  0  0  0
 36 37  2  0  0  0  0
 37 38  1  0  0  0  0
 38 39  2  0  0  0  0
 39 40  1  0  0  0  0
  7 35  1  0  0  0  0
M  END
> <score_KierA3>
0.512287

$$$$
suggested molecule #220
 MOE2019            2D

 44 48  0  0  1  0  0  0  0  0999 V2000
    3.4992   -1.2833    0.0000 C   0  0  0  0  0  0  0  0  0  1  0  0
    4.9992   -1.2762    0.0000 C   0  0  0  0  0  0  0  0  0  2  0  0
    5.7430    0.0263    0.0000 C   0  0  0  0  0  0  0  0  0  3  0  0
    4.9869    1.3218    0.0000 C   0  0  0  0  0  0  0  0  0  4  0  0
    3.4870    1.3147    0.0000 C   0  0  0  0  0  0  0  0  0  5  0  0
    2.7431    0.0122    0.0000 C   0  0  0  0  0  0  0  0  0  6  0  0
    1.2431    0.0051    0.0000 C   0  0  0  0  0  0  0  0  0  7  0  0
    0.4870    1.3006    0.0000 C   0  0  0  0  0  0  0  0  0  8  0  0
    1.2309    2.6032    0.0000 C   0  0  0  0  0  0  0  0  0  9  0  0
    0.4748    3.8987    0.0000 O   0  0  0  0  0  0  0  0  0 10  0  0
    2.7309    2.6102    0.0000 O   0  0  0  0  0  0  0  0  0 11  0  0
    2.9041   -2.3253    0.0000 H   0  0  0  0  0  0  0  0  0  0  0  0
    5.7553   -2.5717    0.0000 O   0  0  0  0  0  0  0  0  0  0  0  0
    7.2430    0.0334    0.0000 O   0  0  0  0  0  0  0  0  0  0  0  0
    7.9991   -1.2621    0.0000 C   0  0  0  0  0  0  0  0  0  0  0  0
    5.7308    2.6244    0.0000 C   0  0  0  0  0  0  0  0  0  0  0  0
    7.2308    2.6314    0.0000 C   0  0  1  0  0  0  0  0  0  0  0  0
    7.9747    3.9340    0.0000 C   0  0  2  0  0  0  0  0  0  0  0  0
    7.2186    5.2295    0.0000 C   0  0  1  0  0  0  0  0  0  0  0  0
    5.7186    5.2224    0.0000 C   0  0  2  0  0  0  0  0  0  0  0  0
    4.9747    3.9198    0.0000 O   0  0  0  0  0  0  0  0  0  0  0  0
    4.9625    6.5179    0.0000 C   0  0  0  0  0  0  0  0  0  0  0  0
    5.7064    7.8204    0.0000 O   0  0  0  0  0  0  0  0  0  0  0  0
    7.9625    6.5320    0.0000 O   0  0  0  0  0  0  0  0  0  0  0  0
    9.4747    3.9410    0.0000 O   0  0  0  0  0  0  0  0  0  0  0  0
    7.9869    1.3359    0.0000 O   0  0  0  0  0  0  0  0  0  0  0  0
    9.4869    1.3430    0.0000 C   0  0  0  0  0  0  0  0  0  0  0  0
   10.2308    2.6455    0.0000 O   0  0  0  0  0  0  0  0  0  0  0  0
   10.2430    0.0475    0.0000 C   0  0  0  0  0  0  0  0  0  0  0  0
   11.7430    0.0545    0.0000 C   0  0  0  0  0  0  0  0  0  0  0  0
   12.4991   -1.2410    0.0000 C   0  0  0  0  0  0  0  0  0  0  0  0
   13.9991   -1.2339    0.0000 C   0  0  0  0  0  0  0  0  0  0  0  0
   14.7552   -2.5294    0.0000 C   0  0  0  0  0  0  0  0  0  0  0  0
   14.0113   -3.8320    0.0000 C   0  0  0  0  0  0  0  0  0  0  0  0
   12.5113   -3.8390    0.0000 C   0  0  0  0  0  0  0  0  0  0  0  0
   11.7552   -2.5435    0.0000 C   0  0  0  0  0  0  0  0  0  0  0  0
   14.7674   -5.1275    0.0000 O   0  0  0  0  0  0  0  0  0  0  0  0
   -0.7130    1.2950    0.0000 H   0  0  0  0  0  0  0  0  0  0  0  0
    0.4992   -1.2974    0.0000 C   0  0  0  0  0  0  0  0  0  0  0  0
   -1.0008   -1.3045    0.0000 C   0  0  0  0  0  0  0  0  0  0  0  0
   -1.7447   -2.6070    0.0000 C   0  0  0  0  0  0  0  0  0  0  0  0
   -0.9886   -3.9025    0.0000 C   0  0  0  0  0  0  0  0  0  0  0  0
    0.5114   -3.8955    0.0000 C   0  0  0  0  0  0  0  0  0  0  0  0
    1.2553   -2.5929    0.0000 C   0  0  0  0  0  0  0  0  0  0  0  0
  1  2  1  0  0  0  0
  1  6  2  0  0  0  0
  2  3  2  0  0  0  0
  3  4  1  0  0  0  0
  4  5  2  0  0  0  0
  5  6  1  0  0  0  0
  5 11  1  0  0  0  0
  6  7  1  0  0  0  0
  7  8  2  0  0  0  0
  8  9  1  0  0  0  0
  9 10  2  0  0  0  0
  9 11  1  0  0  0  0
  1 12  1  0  0  0  0
  2 13  1  0  0  0  0
 14 15  1  0  0  0  0
  3 14  1  0  0  0  0
 16 17  1  0  0  0  0
 16 21  1  0  0  0  0
 17 18  1  0  0  0  0
 17 26  1  1  0  0  0
 18 19  1  0  0  0  0
 18 25  1  6  0  0  0
 19 20  1  0  0  0  0
 19 24  1  1  0  0  0
 20 21  1  0  0  0  0
 20 22  1  6  0  0  0
 22 23  1  0  0  0  0
 26 27  1  0  0  0  0
 27 28  2  0  0  0  0
 27 29  1  0  0  0  0
 29 30  2  0  0  0  0
 30 31  1  0  0  0  0
 31 32  1  0  0  0  0
 31 36  2  0  0  0  0
 32 33  2  0  0  0  0
 33 34  1  0  0  0  0
 34 35  2  0  0  0  0
 34 37  1  0  0  0  0
 35 36  1  0  0  0  0
  4 16  1  0  0  0  0
  8 38  1  0  0  0  0
 39 40  1  0  0  0  0
 39 44  2  0  0  0  0
 40 41  2  0  0  0  0
 41 42  1  0  0  0  0
 42 43  2  0  0  0  0
 43 44  1  0  0  0  0
  7 39  1  0  0  0  0
M  END
> <score_KierA3>
0.512245

$$$$
suggested molecule #221
 MOE2019            2D

 28 31  0  0  0  0  0  0  0  0999 V2000
    3.4992   -1.2833    0.0000 C   0  0  0  0  0  0  0  0  0  1  0  0
    4.9992   -1.2762    0.0000 C   0  0  0  0  0  0  0  0  0  2  0  0
    5.7430    0.0263    0.0000 C   0  0  0  0  0  0  0  0  0  3  0  0
    4.9869    1.3218    0.0000 C   0  0  0  0  0  0  0  0  0  4  0  0
    3.4870    1.3147    0.0000 C   0  0  0  0  0  0  0  0  0  5  0  0
    2.7431    0.0122    0.0000 C   0  0  0  0  0  0  0  0  0  6  0  0
    1.2431    0.0051    0.0000 C   0  0  0  0  0  0  0  0  0  7  0  0
    0.4870    1.3006    0.0000 C   0  0  0  0  0  0  0  0  0  8  0  0
    1.2309    2.6032    0.0000 C   0  0  0  0  0  0  0  0  0  9  0  0
    0.4748    3.8987    0.0000 O   0  0  0  0  0  0  0  0  0 10  0  0
    2.7309    2.6102    0.0000 O   0  0  0  0  0  0  0  0  0 11  0  0
    2.9041   -2.3253    0.0000 H   0  0  0  0  0  0  0  0  0  0  0  0
    5.7553   -2.5717    0.0000 O   0  0  0  0  0  0  0  0  0  0  0  0
    7.2430    0.0334    0.0000 O   0  0  0  0  0  0  0  0  0  0  0  0
    7.9991   -1.2621    0.0000 C   0  0  0  0  0  0  0  0  0  0  0  0
    9.2824    2.0920    0.0000 C   0  0  0  0  0  0  0  0  0  0  0  0
    8.5263    3.3875    0.0000 C   0  0  0  0  0  0  0  0  0  0  0  0
    9.2702    4.6901    0.0000 C   0  0  0  0  0  0  0  0  0  0  0  0
    7.0263    3.3805    0.0000 C   0  0  0  0  0  0  0  0  0  0  0  0
    5.7308    2.6244    0.0000 C   0  0  0  0  0  0  0  0  0  0  0  0
    5.7238    4.1243    0.0000 O   0  0  0  0  0  0  0  0  0  0  0  0
   -0.7130    1.2950    0.0000 H   0  0  0  0  0  0  0  0  0  0  0  0
    0.4992   -1.2974    0.0000 C   0  0  0  0  0  0  0  0  0  0  0  0
    1.2553   -2.5929    0.0000 C   0  0  0  0  0  0  0  0  0  0  0  0
    0.5114   -3.8955    0.0000 C   0  0  0  0  0  0  0  0  0  0  0  0
   -0.9886   -3.9025    0.0000 C   0  0  0  0  0  0  0  0  0  0  0  0
   -1.7447   -2.6070    0.0000 C   0  0  0  0  0  0  0  0  0  0  0  0
   -1.0008   -1.3045    0.0000 C   0  0  0  0  0  0  0  0  0  0  0  0
  1  2  1  0  0  0  0
  1  6  2  0  0  0  0
  2  3  2  0  0  0  0
  3  4  1  0  0  0  0
  4  5  2  0  0  0  0
  5  6  1  0  0  0  0
  5 11  1  0  0  0  0
  6  7  1  0  0  0  0
  7  8  2  0  0  0  0
  8  9  1  0  0  0  0
  9 10  2  0  0  0  0
  9 11  1  0  0  0  0
  1 12  1  0  0  0  0
  2 13  1  0  0  0  0
 14 15  1  0  0  0  0
  3 14  1  0  0  0  0
 16 17  1  0  0  0  0
 17 18  2  0  0  0  0
 17 19  1  0  0  0  0
 19 20  1  0  0  0  0
 19 21  1  0  0  0  0
 20 21  1  0  0  0  0
  4 20  1  0  0  0  0
  8 22  1  0  0  0  0
 23 24  1  0  0  0  0
 23 28  2  0  0  0  0
 24 25  2  0  0  0  0
 25 26  1  0  0  0  0
 26 27  2  0  0  0  0
 27 28  1  0  0  0  0
  7 23  1  0  0  0  0
M  END
> <score_Kier3>
0.511478

$$$$
suggested molecule #222
 MOE2019            2D

 28 31  0  0  0  0  0  0  0  0999 V2000
    3.4992   -1.2833    0.0000 C   0  0  0  0  0  0  0  0  0  1  0  0
    4.9992   -1.2762    0.0000 C   0  0  0  0  0  0  0  0  0  2  0  0
    5.7430    0.0263    0.0000 C   0  0  0  0  0  0  0  0  0  3  0  0
    4.9869    1.3218    0.0000 C   0  0  0  0  0  0  0  0  0  4  0  0
    3.4870    1.3147    0.0000 C   0  0  0  0  0  0  0  0  0  5  0  0
    2.7431    0.0122    0.0000 C   0  0  0  0  0  0  0  0  0  6  0  0
    1.2431    0.0051    0.0000 C   0  0  0  0  0  0  0  0  0  7  0  0
    0.4870    1.3006    0.0000 C   0  0  0  0  0  0  0  0  0  8  0  0
    1.2309    2.6032    0.0000 C   0  0  0  0  0  0  0  0  0  9  0  0
    0.4748    3.8987    0.0000 O   0  0  0  0  0  0  0  0  0 10  0  0
    2.7309    2.6102    0.0000 O   0  0  0  0  0  0  0  0  0 11  0  0
    2.9041   -2.3253    0.0000 H   0  0  0  0  0  0  0  0  0  0  0  0
    5.7553   -2.5717    0.0000 O   0  0  0  0  0  0  0  0  0  0  0  0
    7.2430    0.0334    0.0000 O   0  0  0  0  0  0  0  0  0  0  0  0
    7.9991   -1.2621    0.0000 C   0  0  0  0  0  0  0  0  0  0  0  0
    9.2824    2.0920    0.0000 C   0  0  0  0  0  0  0  0  0  0  0  0
    8.5263    3.3875    0.0000 C   0  0  0  0  0  0  0  0  0  0  0  0
    9.2702    4.6901    0.0000 C   0  0  0  0  0  0  0  0  0  0  0  0
    7.0263    3.3805    0.0000 C   0  0  0  0  0  0  0  0  0  0  0  0
    5.7308    2.6244    0.0000 C   0  0  0  0  0  0  0  0  0  0  0  0
    5.7238    4.1243    0.0000 O   0  0  0  0  0  0  0  0  0  0  0  0
   -0.7130    1.2950    0.0000 H   0  0  0  0  0  0  0  0  0  0  0  0
    0.4992   -1.2974    0.0000 C   0  0  0  0  0  0  0  0  0  0  0  0
    1.2553   -2.5929    0.0000 C   0  0  0  0  0  0  0  0  0  0  0  0
    0.5114   -3.8955    0.0000 C   0  0  0  0  0  0  0  0  0  0  0  0
   -0.9886   -3.9025    0.0000 C   0  0  0  0  0  0  0  0  0  0  0  0
   -1.7447   -2.6070    0.0000 C   0  0  0  0  0  0  0  0  0  0  0  0
   -1.0008   -1.3045    0.0000 C   0  0  0  0  0  0  0  0  0  0  0  0
  1  2  1  0  0  0  0
  1  6  2  0  0  0  0
  2  3  2  0  0  0  0
  3  4  1  0  0  0  0
  4  5  2  0  0  0  0
  5  6  1  0  0  0  0
  5 11  1  0  0  0  0
  6  7  1  0  0  0  0
  7  8  2  0  0  0  0
  8  9  1  0  0  0  0
  9 10  2  0  0  0  0
  9 11  1  0  0  0  0
  1 12  1  0  0  0  0
  2 13  1  0  0  0  0
 14 15  1  0  0  0  0
  3 14  1  0  0  0  0
 16 17  1  0  0  0  0
 17 18  2  0  0  0  0
 17 19  1  0  0  0  0
 19 20  1  0  0  0  0
 19 21  1  0  0  0  0
 20 21  1  0  0  0  0
  4 20  1  0  0  0  0
  8 22  1  0  0  0  0
 23 24  1  0  0  0  0
 23 28  2  0  0  0  0
 24 25  2  0  0  0  0
 25 26  1  0  0  0  0
 26 27  2  0  0  0  0
 27 28  1  0  0  0  0
  7 23  1  0  0  0  0
M  END
> <score_KierA3>
0.51235

$$$$
suggested molecule #223
 MOE2019            2D

 29 32  0  0  0  0  0  0  0  0999 V2000
    3.4992   -1.2833    0.0000 C   0  0  0  0  0  0  0  0  0  1  0  0
    4.9992   -1.2762    0.0000 C   0  0  0  0  0  0  0  0  0  2  0  0
    5.7430    0.0263    0.0000 C   0  0  0  0  0  0  0  0  0  3  0  0
    4.9869    1.3218    0.0000 C   0  0  0  0  0  0  0  0  0  4  0  0
    3.4870    1.3147    0.0000 C   0  0  0  0  0  0  0  0  0  5  0  0
    2.7431    0.0122    0.0000 C   0  0  0  0  0  0  0  0  0  6  0  0
    1.2431    0.0051    0.0000 C   0  0  0  0  0  0  0  0  0  7  0  0
    0.4870    1.3006    0.0000 C   0  0  0  0  0  0  0  0  0  8  0  0
    1.2309    2.6032    0.0000 C   0  0  0  0  0  0  0  0  0  9  0  0
    0.4748    3.8987    0.0000 O   0  0  0  0  0  0  0  0  0 10  0  0
    2.7309    2.6102    0.0000 O   0  0  0  0  0  0  0  0  0 11  0  0
    2.9041   -2.3253    0.0000 H   0  0  0  0  0  0  0  0  0  0  0  0
    5.7553   -2.5717    0.0000 O   0  0  0  0  0  0  0  0  0  0  0  0
    7.2430    0.0334    0.0000 O   0  0  0  0  0  0  0  0  0  0  0  0
    7.9991   -1.2621    0.0000 C   0  0  0  0  0  0  0  0  0  0  0  0
    8.2308    1.6782    0.0000 C   0  0  0  0  0  0  0  0  0  0  0  0
    7.2218    2.7882    0.0000 C   0  0  0  0  0  0  0  0  0  0  0  0
    5.7308    2.6244    0.0000 C   0  0  0  0  0  0  0  0  0  0  0  0
    5.1143    3.9918    0.0000 C   0  0  0  0  0  0  0  0  0  0  0  0
    3.6456    4.2968    0.0000 O   0  0  0  0  0  0  0  0  0  0  0  0
    6.2243    5.0007    0.0000 O   0  0  0  0  0  0  0  0  0  0  0  0
    7.5268    4.2568    0.0000 C   0  0  0  0  0  0  0  0  0  0  0  0
   -0.7130    1.2950    0.0000 H   0  0  0  0  0  0  0  0  0  0  0  0
    0.4992   -1.2974    0.0000 C   0  0  0  0  0  0  0  0  0  0  0  0
    1.2553   -2.5929    0.0000 C   0  0  0  0  0  0  0  0  0  0  0  0
    0.5114   -3.8955    0.0000 C   0  0  0  0  0  0  0  0  0  0  0  0
   -0.9886   -3.9025    0.0000 C   0  0  0  0  0  0  0  0  0  0  0  0
   -1.7447   -2.6070    0.0000 C   0  0  0  0  0  0  0  0  0  0  0  0
   -1.0008   -1.3045    0.0000 C   0  0  0  0  0  0  0  0  0  0  0  0
  1  2  1  0  0  0  0
  1  6  2  0  0  0  0
  2  3  2  0  0  0  0
  3  4  1  0  0  0  0
  4  5  2  0  0  0  0
  5  6  1  0  0  0  0
  5 11  1  0  0  0  0
  6  7  1  0  0  0  0
  7  8  2  0  0  0  0
  8  9  1  0  0  0  0
  9 10  2  0  0  0  0
  9 11  1  0  0  0  0
  1 12  1  0  0  0  0
  2 13  1  0  0  0  0
 14 15  1  0  0  0  0
  3 14  1  0  0  0  0
 16 17  1  0  0  0  0
 17 18  2  0  0  0  0
 17 22  1  0  0  0  0
 18 19  1  0  0  0  0
 19 20  2  0  0  0  0
 19 21  1  0  0  0  0
 21 22  1  0  0  0  0
  4 18  1  0  0  0  0
  8 23  1  0  0  0  0
 24 25  1  0  0  0  0
 24 29  2  0  0  0  0
 25 26  2  0  0  0  0
 26 27  1  0  0  0  0
 27 28  2  0  0  0  0
 28 29  1  0  0  0  0
  7 24  1  0  0  0  0
M  END
> <score_Kier3>
0.511467

$$$$
suggested molecule #224
 MOE2019            2D

 29 32  0  0  0  0  0  0  0  0999 V2000
    3.4992   -1.2833    0.0000 C   0  0  0  0  0  0  0  0  0  1  0  0
    4.9992   -1.2762    0.0000 C   0  0  0  0  0  0  0  0  0  2  0  0
    5.7430    0.0263    0.0000 C   0  0  0  0  0  0  0  0  0  3  0  0
    4.9869    1.3218    0.0000 C   0  0  0  0  0  0  0  0  0  4  0  0
    3.4870    1.3147    0.0000 C   0  0  0  0  0  0  0  0  0  5  0  0
    2.7431    0.0122    0.0000 C   0  0  0  0  0  0  0  0  0  6  0  0
    1.2431    0.0051    0.0000 C   0  0  0  0  0  0  0  0  0  7  0  0
    0.4870    1.3006    0.0000 C   0  0  0  0  0  0  0  0  0  8  0  0
    1.2309    2.6032    0.0000 C   0  0  0  0  0  0  0  0  0  9  0  0
    0.4748    3.8987    0.0000 O   0  0  0  0  0  0  0  0  0 10  0  0
    2.7309    2.6102    0.0000 O   0  0  0  0  0  0  0  0  0 11  0  0
    2.9041   -2.3253    0.0000 H   0  0  0  0  0  0  0  0  0  0  0  0
    5.7553   -2.5717    0.0000 O   0  0  0  0  0  0  0  0  0  0  0  0
    7.2430    0.0334    0.0000 O   0  0  0  0  0  0  0  0  0  0  0  0
    7.9991   -1.2621    0.0000 C   0  0  0  0  0  0  0  0  0  0  0  0
    8.2308    1.6782    0.0000 C   0  0  0  0  0  0  0  0  0  0  0  0
    7.2218    2.7882    0.0000 C   0  0  0  0  0  0  0  0  0  0  0  0
    5.7308    2.6244    0.0000 C   0  0  0  0  0  0  0  0  0  0  0  0
    5.1143    3.9918    0.0000 C   0  0  0  0  0  0  0  0  0  0  0  0
    3.6456    4.2968    0.0000 O   0  0  0  0  0  0  0  0  0  0  0  0
    6.2243    5.0007    0.0000 O   0  0  0  0  0  0  0  0  0  0  0  0
    7.5268    4.2568    0.0000 C   0  0  0  0  0  0  0  0  0  0  0  0
   -0.7130    1.2950    0.0000 H   0  0  0  0  0  0  0  0  0  0  0  0
    0.4992   -1.2974    0.0000 C   0  0  0  0  0  0  0  0  0  0  0  0
    1.2553   -2.5929    0.0000 C   0  0  0  0  0  0  0  0  0  0  0  0
    0.5114   -3.8955    0.0000 C   0  0  0  0  0  0  0  0  0  0  0  0
   -0.9886   -3.9025    0.0000 C   0  0  0  0  0  0  0  0  0  0  0  0
   -1.7447   -2.6070    0.0000 C   0  0  0  0  0  0  0  0  0  0  0  0
   -1.0008   -1.3045    0.0000 C   0  0  0  0  0  0  0  0  0  0  0  0
  1  2  1  0  0  0  0
  1  6  2  0  0  0  0
  2  3  2  0  0  0  0
  3  4  1  0  0  0  0
  4  5  2  0  0  0  0
  5  6  1  0  0  0  0
  5 11  1  0  0  0  0
  6  7  1  0  0  0  0
  7  8  2  0  0  0  0
  8  9  1  0  0  0  0
  9 10  2  0  0  0  0
  9 11  1  0  0  0  0
  1 12  1  0  0  0  0
  2 13  1  0  0  0  0
 14 15  1  0  0  0  0
  3 14  1  0  0  0  0
 16 17  1  0  0  0  0
 17 18  2  0  0  0  0
 17 22  1  0  0  0  0
 18 19  1  0  0  0  0
 19 20  2  0  0  0  0
 19 21  1  0  0  0  0
 21 22  1  0  0  0  0
  4 18  1  0  0  0  0
  8 23  1  0  0  0  0
 24 25  1  0  0  0  0
 24 29  2  0  0  0  0
 25 26  2  0  0  0  0
 26 27  1  0  0  0  0
 27 28  2  0  0  0  0
 28 29  1  0  0  0  0
  7 24  1  0  0  0  0
M  END
> <score_KierA3>
0.512341

$$$$
suggested molecule #225
 MOE2019            2D

 29 31  0  0  0  0  0  0  0  0999 V2000
    3.4992   -1.2833    0.0000 C   0  0  0  0  0  0  0  0  0  1  0  0
    4.9992   -1.2762    0.0000 C   0  0  0  0  0  0  0  0  0  2  0  0
    5.7430    0.0263    0.0000 C   0  0  0  0  0  0  0  0  0  3  0  0
    4.9869    1.3218    0.0000 C   0  0  0  0  0  0  0  0  0  4  0  0
    3.4870    1.3147    0.0000 C   0  0  0  0  0  0  0  0  0  5  0  0
    2.7431    0.0122    0.0000 C   0  0  0  0  0  0  0  0  0  6  0  0
    1.2431    0.0051    0.0000 C   0  0  0  0  0  0  0  0  0  7  0  0
    0.4870    1.3006    0.0000 C   0  0  0  0  0  0  0  0  0  8  0  0
    1.2309    2.6032    0.0000 C   0  0  0  0  0  0  0  0  0  9  0  0
    0.4748    3.8987    0.0000 O   0  0  0  0  0  0  0  0  0 10  0  0
    2.7309    2.6102    0.0000 O   0  0  0  0  0  0  0  0  0 11  0  0
    2.9041   -2.3253    0.0000 H   0  0  0  0  0  0  0  0  0  0  0  0
    5.7553   -2.5717    0.0000 O   0  0  0  0  0  0  0  0  0  0  0  0
    7.2430    0.0334    0.0000 O   0  0  0  0  0  0  0  0  0  0  0  0
    7.9991   -1.2621    0.0000 C   0  0  0  0  0  0  0  0  0  0  0  0
    6.6721    4.6778    0.0000 C   0  0  0  0  0  0  0  0  0  0  0  0
    7.9747    3.9340    0.0000 C   0  0  0  0  0  0  0  0  0  0  0  0
    8.7186    5.2365    0.0000 C   0  0  0  0  0  0  0  0  0  0  0  0
    7.2308    2.6314    0.0000 C   0  0  0  0  0  0  0  0  0  0  0  0
    5.7308    2.6244    0.0000 C   0  0  0  0  0  0  0  0  0  0  0  0
    7.9869    1.3359    0.0000 O   0  0  0  0  0  0  0  0  0  0  0  0
    9.2772    3.1901    0.0000 O   0  0  0  0  0  0  0  0  0  0  0  0
   -0.7130    1.2950    0.0000 H   0  0  0  0  0  0  0  0  0  0  0  0
    0.4992   -1.2974    0.0000 C   0  0  0  0  0  0  0  0  0  0  0  0
    1.2553   -2.5929    0.0000 C   0  0  0  0  0  0  0  0  0  0  0  0
    0.5114   -3.8955    0.0000 C   0  0  0  0  0  0  0  0  0  0  0  0
   -0.9886   -3.9025    0.0000 C   0  0  0  0  0  0  0  0  0  0  0  0
   -1.7447   -2.6070    0.0000 C   0  0  0  0  0  0  0  0  0  0  0  0
   -1.0008   -1.3045    0.0000 C   0  0  0  0  0  0  0  0  0  0  0  0
  1  2  1  0  0  0  0
  1  6  2  0  0  0  0
  2  3  2  0  0  0  0
  3  4  1  0  0  0  0
  4  5  2  0  0  0  0
  5  6  1  0  0  0  0
  5 11  1  0  0  0  0
  6  7  1  0  0  0  0
  7  8  2  0  0  0  0
  8  9  1  0  0  0  0
  9 10  2  0  0  0  0
  9 11  1  0  0  0  0
  1 12  1  0  0  0  0
  2 13  1  0  0  0  0
 14 15  1  0  0  0  0
  3 14  1  0  0  0  0
 16 17  1  0  0  0  0
 17 18  1  0  0  0  0
 17 19  1  0  0  0  0
 17 22  1  0  0  0  0
 19 20  1  0  0  0  0
 19 21  1  0  0  0  0
  4 20  1  0  0  0  0
  8 23  1  0  0  0  0
 24 25  1  0  0  0  0
 24 29  2  0  0  0  0
 25 26  2  0  0  0  0
 26 27  1  0  0  0  0
 27 28  2  0  0  0  0
 28 29  1  0  0  0  0
  7 24  1  0  0  0  0
M  END
> <score_Kier3>
0.511436

$$$$
suggested molecule #226
 MOE2019            2D

 29 31  0  0  0  0  0  0  0  0999 V2000
    3.4992   -1.2833    0.0000 C   0  0  0  0  0  0  0  0  0  1  0  0
    4.9992   -1.2762    0.0000 C   0  0  0  0  0  0  0  0  0  2  0  0
    5.7430    0.0263    0.0000 C   0  0  0  0  0  0  0  0  0  3  0  0
    4.9869    1.3218    0.0000 C   0  0  0  0  0  0  0  0  0  4  0  0
    3.4870    1.3147    0.0000 C   0  0  0  0  0  0  0  0  0  5  0  0
    2.7431    0.0122    0.0000 C   0  0  0  0  0  0  0  0  0  6  0  0
    1.2431    0.0051    0.0000 C   0  0  0  0  0  0  0  0  0  7  0  0
    0.4870    1.3006    0.0000 C   0  0  0  0  0  0  0  0  0  8  0  0
    1.2309    2.6032    0.0000 C   0  0  0  0  0  0  0  0  0  9  0  0
    0.4748    3.8987    0.0000 O   0  0  0  0  0  0  0  0  0 10  0  0
    2.7309    2.6102    0.0000 O   0  0  0  0  0  0  0  0  0 11  0  0
    2.9041   -2.3253    0.0000 H   0  0  0  0  0  0  0  0  0  0  0  0
    5.7553   -2.5717    0.0000 O   0  0  0  0  0  0  0  0  0  0  0  0
    7.2430    0.0334    0.0000 O   0  0  0  0  0  0  0  0  0  0  0  0
    7.9991   -1.2621    0.0000 C   0  0  0  0  0  0  0  0  0  0  0  0
    6.6721    4.6778    0.0000 C   0  0  0  0  0  0  0  0  0  0  0  0
    7.9747    3.9340    0.0000 C   0  0  0  0  0  0  0  0  0  0  0  0
    8.7186    5.2365    0.0000 C   0  0  0  0  0  0  0  0  0  0  0  0
    7.2308    2.6314    0.0000 C   0  0  0  0  0  0  0  0  0  0  0  0
    5.7308    2.6244    0.0000 C   0  0  0  0  0  0  0  0  0  0  0  0
    7.9869    1.3359    0.0000 O   0  0  0  0  0  0  0  0  0  0  0  0
    9.2772    3.1901    0.0000 O   0  0  0  0  0  0  0  0  0  0  0  0
   -0.7130    1.2950    0.0000 H   0  0  0  0  0  0  0  0  0  0  0  0
    0.4992   -1.2974    0.0000 C   0  0  0  0  0  0  0  0  0  0  0  0
    1.2553   -2.5929    0.0000 C   0  0  0  0  0  0  0  0  0  0  0  0
    0.5114   -3.8955    0.0000 C   0  0  0  0  0  0  0  0  0  0  0  0
   -0.9886   -3.9025    0.0000 C   0  0  0  0  0  0  0  0  0  0  0  0
   -1.7447   -2.6070    0.0000 C   0  0  0  0  0  0  0  0  0  0  0  0
   -1.0008   -1.3045    0.0000 C   0  0  0  0  0  0  0  0  0  0  0  0
  1  2  1  0  0  0  0
  1  6  2  0  0  0  0
  2  3  2  0  0  0  0
  3  4  1  0  0  0  0
  4  5  2  0  0  0  0
  5  6  1  0  0  0  0
  5 11  1  0  0  0  0
  6  7  1  0  0  0  0
  7  8  2  0  0  0  0
  8  9  1  0  0  0  0
  9 10  2  0  0  0  0
  9 11  1  0  0  0  0
  1 12  1  0  0  0  0
  2 13  1  0  0  0  0
 14 15  1  0  0  0  0
  3 14  1  0  0  0  0
 16 17  1  0  0  0  0
 17 18  1  0  0  0  0
 17 19  1  0  0  0  0
 17 22  1  0  0  0  0
 19 20  1  0  0  0  0
 19 21  1  0  0  0  0
  4 20  1  0  0  0  0
  8 23  1  0  0  0  0
 24 25  1  0  0  0  0
 24 29  2  0  0  0  0
 25 26  2  0  0  0  0
 26 27  1  0  0  0  0
 27 28  2  0  0  0  0
 28 29  1  0  0  0  0
  7 24  1  0  0  0  0
M  END
> <score_KierA3>
0.512303

$$$$
suggested molecule #227
 MOE2019            2D

 30 32  0  0  0  0  0  0  0  0999 V2000
    3.4992   -1.2833    0.0000 C   0  0  0  0  0  0  0  0  0  1  0  0
    4.9992   -1.2762    0.0000 C   0  0  0  0  0  0  0  0  0  2  0  0
    5.7430    0.0263    0.0000 C   0  0  0  0  0  0  0  0  0  3  0  0
    4.9869    1.3218    0.0000 C   0  0  0  0  0  0  0  0  0  4  0  0
    3.4870    1.3147    0.0000 C   0  0  0  0  0  0  0  0  0  5  0  0
    2.7431    0.0122    0.0000 C   0  0  0  0  0  0  0  0  0  6  0  0
    1.2431    0.0051    0.0000 C   0  0  0  0  0  0  0  0  0  7  0  0
    0.4870    1.3006    0.0000 C   0  0  0  0  0  0  0  0  0  8  0  0
    1.2309    2.6032    0.0000 C   0  0  0  0  0  0  0  0  0  9  0  0
    0.4748    3.8987    0.0000 O   0  0  0  0  0  0  0  0  0 10  0  0
    2.7309    2.6102    0.0000 O   0  0  0  0  0  0  0  0  0 11  0  0
    2.9041   -2.3253    0.0000 H   0  0  0  0  0  0  0  0  0  0  0  0
    5.7553   -2.5717    0.0000 O   0  0  0  0  0  0  0  0  0  0  0  0
    7.2430    0.0334    0.0000 O   0  0  0  0  0  0  0  0  0  0  0  0
    7.9991   -1.2621    0.0000 C   0  0  0  0  0  0  0  0  0  0  0  0
    9.4747    3.9410    0.0000 C   0  0  0  0  0  0  0  0  0  0  0  0
    7.9747    3.9340    0.0000 C   0  0  0  0  0  0  0  0  0  0  0  0
    7.2186    5.2295    0.0000 C   0  0  0  0  0  0  0  0  0  0  0  0
    7.2308    2.6314    0.0000 C   0  0  0  0  0  0  0  0  0  0  0  0
    5.7308    2.6244    0.0000 C   0  0  0  0  0  0  0  0  0  0  0  0
    4.9747    3.9198    0.0000 O   0  0  0  0  0  0  0  0  0  0  0  0
    5.7186    5.2224    0.0000 C   0  0  0  0  0  0  0  0  0  0  0  0
    7.9869    1.3359    0.0000 O   0  0  0  0  0  0  0  0  0  0  0  0
   -0.7130    1.2950    0.0000 H   0  0  0  0  0  0  0  0  0  0  0  0
    0.4992   -1.2974    0.0000 C   0  0  0  0  0  0  0  0  0  0  0  0
    1.2553   -2.5929    0.0000 C   0  0  0  0  0  0  0  0  0  0  0  0
    0.5114   -3.8955    0.0000 C   0  0  0  0  0  0  0  0  0  0  0  0
   -0.9886   -3.9025    0.0000 C   0  0  0  0  0  0  0  0  0  0  0  0
   -1.7447   -2.6070    0.0000 C   0  0  0  0  0  0  0  0  0  0  0  0
   -1.0008   -1.3045    0.0000 C   0  0  0  0  0  0  0  0  0  0  0  0
  1  2  1  0  0  0  0
  1  6  2  0  0  0  0
  2  3  2  0  0  0  0
  3  4  1  0  0  0  0
  4  5  2  0  0  0  0
  5  6  1  0  0  0  0
  5 11  1  0  0  0  0
  6  7  1  0  0  0  0
  7  8  2  0  0  0  0
  8  9  1  0  0  0  0
  9 10  2  0  0  0  0
  9 11  1  0  0  0  0
  1 12  1  0  0  0  0
  2 13  1  0  0  0  0
 14 15  1  0  0  0  0
  3 14  1  0  0  0  0
 16 17  1  0  0  0  0
 17 18  2  0  0  0  0
 17 19  1  0  0  0  0
 19 20  1  0  0  0  0
 19 23  1  0  0  0  0
 20 21  1  0  0  0  0
 21 22  1  0  0  0  0
  4 20  1  0  0  0  0
  8 24  1  0  0  0  0
 25 26  1  0  0  0  0
 25 30  2  0  0  0  0
 26 27  2  0  0  0  0
 27 28  1  0  0  0  0
 28 29  2  0  0  0  0
 29 30  1  0  0  0  0
  7 25  1  0  0  0  0
M  END
> <score_Kier3>
0.51144

$$$$
suggested molecule #228
 MOE2019            2D

 30 32  0  0  0  0  0  0  0  0999 V2000
    3.4992   -1.2833    0.0000 C   0  0  0  0  0  0  0  0  0  1  0  0
    4.9992   -1.2762    0.0000 C   0  0  0  0  0  0  0  0  0  2  0  0
    5.7430    0.0263    0.0000 C   0  0  0  0  0  0  0  0  0  3  0  0
    4.9869    1.3218    0.0000 C   0  0  0  0  0  0  0  0  0  4  0  0
    3.4870    1.3147    0.0000 C   0  0  0  0  0  0  0  0  0  5  0  0
    2.7431    0.0122    0.0000 C   0  0  0  0  0  0  0  0  0  6  0  0
    1.2431    0.0051    0.0000 C   0  0  0  0  0  0  0  0  0  7  0  0
    0.4870    1.3006    0.0000 C   0  0  0  0  0  0  0  0  0  8  0  0
    1.2309    2.6032    0.0000 C   0  0  0  0  0  0  0  0  0  9  0  0
    0.4748    3.8987    0.0000 O   0  0  0  0  0  0  0  0  0 10  0  0
    2.7309    2.6102    0.0000 O   0  0  0  0  0  0  0  0  0 11  0  0
    2.9041   -2.3253    0.0000 H   0  0  0  0  0  0  0  0  0  0  0  0
    5.7553   -2.5717    0.0000 O   0  0  0  0  0  0  0  0  0  0  0  0
    7.2430    0.0334    0.0000 O   0  0  0  0  0  0  0  0  0  0  0  0
    7.9991   -1.2621    0.0000 C   0  0  0  0  0  0  0  0  0  0  0  0
    9.4747    3.9410    0.0000 C   0  0  0  0  0  0  0  0  0  0  0  0
    7.9747    3.9340    0.0000 C   0  0  0  0  0  0  0  0  0  0  0  0
    7.2186    5.2295    0.0000 C   0  0  0  0  0  0  0  0  0  0  0  0
    7.2308    2.6314    0.0000 C   0  0  0  0  0  0  0  0  0  0  0  0
    5.7308    2.6244    0.0000 C   0  0  0  0  0  0  0  0  0  0  0  0
    4.9747    3.9198    0.0000 O   0  0  0  0  0  0  0  0  0  0  0  0
    5.7186    5.2224    0.0000 C   0  0  0  0  0  0  0  0  0  0  0  0
    7.9869    1.3359    0.0000 O   0  0  0  0  0  0  0  0  0  0  0  0
   -0.7130    1.2950    0.0000 H   0  0  0  0  0  0  0  0  0  0  0  0
    0.4992   -1.2974    0.0000 C   0  0  0  0  0  0  0  0  0  0  0  0
    1.2553   -2.5929    0.0000 C   0  0  0  0  0  0  0  0  0  0  0  0
    0.5114   -3.8955    0.0000 C   0  0  0  0  0  0  0  0  0  0  0  0
   -0.9886   -3.9025    0.0000 C   0  0  0  0  0  0  0  0  0  0  0  0
   -1.7447   -2.6070    0.0000 C   0  0  0  0  0  0  0  0  0  0  0  0
   -1.0008   -1.3045    0.0000 C   0  0  0  0  0  0  0  0  0  0  0  0
  1  2  1  0  0  0  0
  1  6  2  0  0  0  0
  2  3  2  0  0  0  0
  3  4  1  0  0  0  0
  4  5  2  0  0  0  0
  5  6  1  0  0  0  0
  5 11  1  0  0  0  0
  6  7  1  0  0  0  0
  7  8  2  0  0  0  0
  8  9  1  0  0  0  0
  9 10  2  0  0  0  0
  9 11  1  0  0  0  0
  1 12  1  0  0  0  0
  2 13  1  0  0  0  0
 14 15  1  0  0  0  0
  3 14  1  0  0  0  0
 16 17  1  0  0  0  0
 17 18  2  0  0  0  0
 17 19  1  0  0  0  0
 19 20  1  0  0  0  0
 19 23  1  0  0  0  0
 20 21  1  0  0  0  0
 21 22  1  0  0  0  0
  4 20  1  0  0  0  0
  8 24  1  0  0  0  0
 25 26  1  0  0  0  0
 25 30  2  0  0  0  0
 26 27  2  0  0  0  0
 27 28  1  0  0  0  0
 28 29  2  0  0  0  0
 29 30  1  0  0  0  0
  7 25  1  0  0  0  0
M  END
> <score_KierA3>
0.512309

$$$$
suggested molecule #229
 MOE2019            2D

 29 31  0  0  0  0  0  0  0  0999 V2000
    3.4992   -1.2833    0.0000 C   0  0  0  0  0  0  0  0  0  1  0  0
    4.9992   -1.2762    0.0000 C   0  0  0  0  0  0  0  0  0  2  0  0
    5.7430    0.0263    0.0000 C   0  0  0  0  0  0  0  0  0  3  0  0
    4.9869    1.3218    0.0000 C   0  0  0  0  0  0  0  0  0  4  0  0
    3.4870    1.3147    0.0000 C   0  0  0  0  0  0  0  0  0  5  0  0
    2.7431    0.0122    0.0000 C   0  0  0  0  0  0  0  0  0  6  0  0
    1.2431    0.0051    0.0000 C   0  0  0  0  0  0  0  0  0  7  0  0
    0.4870    1.3006    0.0000 C   0  0  0  0  0  0  0  0  0  8  0  0
    1.2309    2.6032    0.0000 C   0  0  0  0  0  0  0  0  0  9  0  0
    0.4748    3.8987    0.0000 O   0  0  0  0  0  0  0  0  0 10  0  0
    2.7309    2.6102    0.0000 O   0  0  0  0  0  0  0  0  0 11  0  0
    2.9041   -2.3253    0.0000 H   0  0  0  0  0  0  0  0  0  0  0  0
    5.7553   -2.5717    0.0000 O   0  0  0  0  0  0  0  0  0  0  0  0
    7.2430    0.0334    0.0000 O   0  0  0  0  0  0  0  0  0  0  0  0
    7.9991   -1.2621    0.0000 C   0  0  0  0  0  0  0  0  0  0  0  0
    6.6721    4.6778    0.0000 C   0  0  0  0  0  0  0  0  0  0  0  0
    7.9747    3.9340    0.0000 C   0  0  0  0  0  0  0  0  0  0  0  0
    8.7186    5.2365    0.0000 C   0  0  0  0  0  0  0  0  0  0  0  0
    7.2308    2.6314    0.0000 C   0  0  0  0  0  0  0  0  0  0  0  0
    5.7308    2.6244    0.0000 C   0  0  0  0  0  0  0  0  0  0  0  0
    7.9869    1.3359    0.0000 O   0  0  0  0  0  0  0  0  0  0  0  0
    9.2772    3.1901    0.0000 O   0  0  0  0  0  0  0  0  0  0  0  0
   -0.7130    1.2950    0.0000 H   0  0  0  0  0  0  0  0  0  0  0  0
    0.4992   -1.2974    0.0000 C   0  0  0  0  0  0  0  0  0  0  0  0
    1.2553   -2.5929    0.0000 C   0  0  0  0  0  0  0  0  0  0  0  0
    0.5114   -3.8955    0.0000 C   0  0  0  0  0  0  0  0  0  0  0  0
   -0.9886   -3.9025    0.0000 C   0  0  0  0  0  0  0  0  0  0  0  0
   -1.7447   -2.6070    0.0000 C   0  0  0  0  0  0  0  0  0  0  0  0
   -1.0008   -1.3045    0.0000 C   0  0  0  0  0  0  0  0  0  0  0  0
  1  2  1  0  0  0  0
  1  6  2  0  0  0  0
  2  3  2  0  0  0  0
  3  4  1  0  0  0  0
  4  5  2  0  0  0  0
  5  6  1  0  0  0  0
  5 11  1  0  0  0  0
  6  7  1  0  0  0  0
  7  8  2  0  0  0  0
  8  9  1  0  0  0  0
  9 10  2  0  0  0  0
  9 11  1  0  0  0  0
  1 12  1  0  0  0  0
  2 13  1  0  0  0  0
 14 15  1  0  0  0  0
  3 14  1  0  0  0  0
 16 17  1  0  0  0  0
 17 18  1  0  0  0  0
 17 19  1  0  0  0  0
 17 22  1  0  0  0  0
 19 20  1  0  0  0  0
 19 21  1  0  0  0  0
  4 20  1  0  0  0  0
  8 23  1  0  0  0  0
 24 25  1  0  0  0  0
 24 29  2  0  0  0  0
 25 26  2  0  0  0  0
 26 27  1  0  0  0  0
 27 28  2  0  0  0  0
 28 29  1  0  0  0  0
  7 24  1  0  0  0  0
M  END
> <score_Kier3>
0.511478

$$$$
suggested molecule #230
 MOE2019            2D

 29 31  0  0  0  0  0  0  0  0999 V2000
    3.4992   -1.2833    0.0000 C   0  0  0  0  0  0  0  0  0  1  0  0
    4.9992   -1.2762    0.0000 C   0  0  0  0  0  0  0  0  0  2  0  0
    5.7430    0.0263    0.0000 C   0  0  0  0  0  0  0  0  0  3  0  0
    4.9869    1.3218    0.0000 C   0  0  0  0  0  0  0  0  0  4  0  0
    3.4870    1.3147    0.0000 C   0  0  0  0  0  0  0  0  0  5  0  0
    2.7431    0.0122    0.0000 C   0  0  0  0  0  0  0  0  0  6  0  0
    1.2431    0.0051    0.0000 C   0  0  0  0  0  0  0  0  0  7  0  0
    0.4870    1.3006    0.0000 C   0  0  0  0  0  0  0  0  0  8  0  0
    1.2309    2.6032    0.0000 C   0  0  0  0  0  0  0  0  0  9  0  0
    0.4748    3.8987    0.0000 O   0  0  0  0  0  0  0  0  0 10  0  0
    2.7309    2.6102    0.0000 O   0  0  0  0  0  0  0  0  0 11  0  0
    2.9041   -2.3253    0.0000 H   0  0  0  0  0  0  0  0  0  0  0  0
    5.7553   -2.5717    0.0000 O   0  0  0  0  0  0  0  0  0  0  0  0
    7.2430    0.0334    0.0000 O   0  0  0  0  0  0  0  0  0  0  0  0
    7.9991   -1.2621    0.0000 C   0  0  0  0  0  0  0  0  0  0  0  0
    6.6721    4.6778    0.0000 C   0  0  0  0  0  0  0  0  0  0  0  0
    7.9747    3.9340    0.0000 C   0  0  0  0  0  0  0  0  0  0  0  0
    8.7186    5.2365    0.0000 C   0  0  0  0  0  0  0  0  0  0  0  0
    7.2308    2.6314    0.0000 C   0  0  0  0  0  0  0  0  0  0  0  0
    5.7308    2.6244    0.0000 C   0  0  0  0  0  0  0  0  0  0  0  0
    7.9869    1.3359    0.0000 O   0  0  0  0  0  0  0  0  0  0  0  0
    9.2772    3.1901    0.0000 O   0  0  0  0  0  0  0  0  0  0  0  0
   -0.7130    1.2950    0.0000 H   0  0  0  0  0  0  0  0  0  0  0  0
    0.4992   -1.2974    0.0000 C   0  0  0  0  0  0  0  0  0  0  0  0
    1.2553   -2.5929    0.0000 C   0  0  0  0  0  0  0  0  0  0  0  0
    0.5114   -3.8955    0.0000 C   0  0  0  0  0  0  0  0  0  0  0  0
   -0.9886   -3.9025    0.0000 C   0  0  0  0  0  0  0  0  0  0  0  0
   -1.7447   -2.6070    0.0000 C   0  0  0  0  0  0  0  0  0  0  0  0
   -1.0008   -1.3045    0.0000 C   0  0  0  0  0  0  0  0  0  0  0  0
  1  2  1  0  0  0  0
  1  6  2  0  0  0  0
  2  3  2  0  0  0  0
  3  4  1  0  0  0  0
  4  5  2  0  0  0  0
  5  6  1  0  0  0  0
  5 11  1  0  0  0  0
  6  7  1  0  0  0  0
  7  8  2  0  0  0  0
  8  9  1  0  0  0  0
  9 10  2  0  0  0  0
  9 11  1  0  0  0  0
  1 12  1  0  0  0  0
  2 13  1  0  0  0  0
 14 15  1  0  0  0  0
  3 14  1  0  0  0  0
 16 17  1  0  0  0  0
 17 18  1  0  0  0  0
 17 19  1  0  0  0  0
 17 22  1  0  0  0  0
 19 20  1  0  0  0  0
 19 21  1  0  0  0  0
  4 20  1  0  0  0  0
  8 23  1  0  0  0  0
 24 25  1  0  0  0  0
 24 29  2  0  0  0  0
 25 26  2  0  0  0  0
 26 27  1  0  0  0  0
 27 28  2  0  0  0  0
 28 29  1  0  0  0  0
  7 24  1  0  0  0  0
M  END
> <score_KierA3>
0.512346

$$$$
suggested molecule #231
 MOE2019            2D

 28 30  0  0  0  0  0  0  0  0999 V2000
    3.4992   -1.2833    0.0000 C   0  0  0  0  0  0  0  0  0  1  0  0
    4.9992   -1.2762    0.0000 C   0  0  0  0  0  0  0  0  0  2  0  0
    5.7430    0.0263    0.0000 C   0  0  0  0  0  0  0  0  0  3  0  0
    4.9869    1.3218    0.0000 C   0  0  0  0  0  0  0  0  0  4  0  0
    3.4870    1.3147    0.0000 C   0  0  0  0  0  0  0  0  0  5  0  0
    2.7431    0.0122    0.0000 C   0  0  0  0  0  0  0  0  0  6  0  0
    1.2431    0.0051    0.0000 C   0  0  0  0  0  0  0  0  0  7  0  0
    0.4870    1.3006    0.0000 C   0  0  0  0  0  0  0  0  0  8  0  0
    1.2309    2.6032    0.0000 C   0  0  0  0  0  0  0  0  0  9  0  0
    0.4748    3.8987    0.0000 O   0  0  0  0  0  0  0  0  0 10  0  0
    2.7309    2.6102    0.0000 O   0  0  0  0  0  0  0  0  0 11  0  0
    2.9041   -2.3253    0.0000 H   0  0  0  0  0  0  0  0  0  0  0  0
    5.7553   -2.5717    0.0000 O   0  0  0  0  0  0  0  0  0  0  0  0
    7.2430    0.0334    0.0000 O   0  0  0  0  0  0  0  0  0  0  0  0
    7.9991   -1.2621    0.0000 C   0  0  0  0  0  0  0  0  0  0  0  0
    7.9869    1.3359    0.0000 C   0  0  0  0  0  0  0  0  0  0  0  0
    7.2308    2.6314    0.0000 C   0  0  0  0  0  0  0  0  0  0  0  0
    5.7308    2.6244    0.0000 C   0  0  0  0  0  0  0  0  0  0  0  0
    4.9747    3.9198    0.0000 C   0  0  0  0  0  0  0  0  0  0  0  0
    5.7186    5.2224    0.0000 O   0  0  0  0  0  0  0  0  0  0  0  0
    7.9747    3.9340    0.0000 C   0  0  0  0  0  0  0  0  0  0  0  0
   -0.7130    1.2950    0.0000 H   0  0  0  0  0  0  0  0  0  0  0  0
    0.4992   -1.2974    0.0000 C   0  0  0  0  0  0  0  0  0  0  0  0
    1.2553   -2.5929    0.0000 C   0  0  0  0  0  0  0  0  0  0  0  0
    0.5114   -3.8955    0.0000 C   0  0  0  0  0  0  0  0  0  0  0  0
   -0.9886   -3.9025    0.0000 C   0  0  0  0  0  0  0  0  0  0  0  0
   -1.7447   -2.6070    0.0000 C   0  0  0  0  0  0  0  0  0  0  0  0
   -1.0008   -1.3045    0.0000 C   0  0  0  0  0  0  0  0  0  0  0  0
  1  2  1  0  0  0  0
  1  6  2  0  0  0  0
  2  3  2  0  0  0  0
  3  4  1  0  0  0  0
  4  5  2  0  0  0  0
  5  6  1  0  0  0  0
  5 11  1  0  0  0  0
  6  7  1  0  0  0  0
  7  8  2  0  0  0  0
  8  9  1  0  0  0  0
  9 10  2  0  0  0  0
  9 11  1  0  0  0  0
  1 12  1  0  0  0  0
  2 13  1  0  0  0  0
 14 15  1  0  0  0  0
  3 14  1  0  0  0  0
 16 17  1  0  0  0  0
 17 18  2  0  0  0  0
 17 21  1  0  0  0  0
 18 19  1  0  0  0  0
 19 20  2  0  0  0  0
  4 18  1  0  0  0  0
  8 22  1  0  0  0  0
 23 24  1  0  0  0  0
 23 28  2  0  0  0  0
 24 25  2  0  0  0  0
 25 26  1  0  0  0  0
 26 27  2  0  0  0  0
 27 28  1  0  0  0  0
  7 23  1  0  0  0  0
M  END
> <score_Kier3>
0.511452

$$$$
suggested molecule #232
 MOE2019            2D

 28 30  0  0  0  0  0  0  0  0999 V2000
    3.4992   -1.2833    0.0000 C   0  0  0  0  0  0  0  0  0  1  0  0
    4.9992   -1.2762    0.0000 C   0  0  0  0  0  0  0  0  0  2  0  0
    5.7430    0.0263    0.0000 C   0  0  0  0  0  0  0  0  0  3  0  0
    4.9869    1.3218    0.0000 C   0  0  0  0  0  0  0  0  0  4  0  0
    3.4870    1.3147    0.0000 C   0  0  0  0  0  0  0  0  0  5  0  0
    2.7431    0.0122    0.0000 C   0  0  0  0  0  0  0  0  0  6  0  0
    1.2431    0.0051    0.0000 C   0  0  0  0  0  0  0  0  0  7  0  0
    0.4870    1.3006    0.0000 C   0  0  0  0  0  0  0  0  0  8  0  0
    1.2309    2.6032    0.0000 C   0  0  0  0  0  0  0  0  0  9  0  0
    0.4748    3.8987    0.0000 O   0  0  0  0  0  0  0  0  0 10  0  0
    2.7309    2.6102    0.0000 O   0  0  0  0  0  0  0  0  0 11  0  0
    2.9041   -2.3253    0.0000 H   0  0  0  0  0  0  0  0  0  0  0  0
    5.7553   -2.5717    0.0000 O   0  0  0  0  0  0  0  0  0  0  0  0
    7.2430    0.0334    0.0000 O   0  0  0  0  0  0  0  0  0  0  0  0
    7.9991   -1.2621    0.0000 C   0  0  0  0  0  0  0  0  0  0  0  0
    7.9869    1.3359    0.0000 C   0  0  0  0  0  0  0  0  0  0  0  0
    7.2308    2.6314    0.0000 C   0  0  0  0  0  0  0  0  0  0  0  0
    5.7308    2.6244    0.0000 C   0  0  0  0  0  0  0  0  0  0  0  0
    4.9747    3.9198    0.0000 C   0  0  0  0  0  0  0  0  0  0  0  0
    5.7186    5.2224    0.0000 O   0  0  0  0  0  0  0  0  0  0  0  0
    7.9747    3.9340    0.0000 C   0  0  0  0  0  0  0  0  0  0  0  0
   -0.7130    1.2950    0.0000 H   0  0  0  0  0  0  0  0  0  0  0  0
    0.4992   -1.2974    0.0000 C   0  0  0  0  0  0  0  0  0  0  0  0
    1.2553   -2.5929    0.0000 C   0  0  0  0  0  0  0  0  0  0  0  0
    0.5114   -3.8955    0.0000 C   0  0  0  0  0  0  0  0  0  0  0  0
   -0.9886   -3.9025    0.0000 C   0  0  0  0  0  0  0  0  0  0  0  0
   -1.7447   -2.6070    0.0000 C   0  0  0  0  0  0  0  0  0  0  0  0
   -1.0008   -1.3045    0.0000 C   0  0  0  0  0  0  0  0  0  0  0  0
  1  2  1  0  0  0  0
  1  6  2  0  0  0  0
  2  3  2  0  0  0  0
  3  4  1  0  0  0  0
  4  5  2  0  0  0  0
  5  6  1  0  0  0  0
  5 11  1  0  0  0  0
  6  7  1  0  0  0  0
  7  8  2  0  0  0  0
  8  9  1  0  0  0  0
  9 10  2  0  0  0  0
  9 11  1  0  0  0  0
  1 12  1  0  0  0  0
  2 13  1  0  0  0  0
 14 15  1  0  0  0  0
  3 14  1  0  0  0  0
 16 17  1  0  0  0  0
 17 18  2  0  0  0  0
 17 21  1  0  0  0  0
 18 19  1  0  0  0  0
 19 20  2  0  0  0  0
  4 18  1  0  0  0  0
  8 22  1  0  0  0  0
 23 24  1  0  0  0  0
 23 28  2  0  0  0  0
 24 25  2  0  0  0  0
 25 26  1  0  0  0  0
 26 27  2  0  0  0  0
 27 28  1  0  0  0  0
  7 23  1  0  0  0  0
M  END
> <score_KierA3>
0.512329

$$$$
suggested molecule #233
 MOE2019            2D

 26 28  0  0  0  0  0  0  0  0999 V2000
    3.4992   -1.2833    0.0000 C   0  0  0  0  0  0  0  0  0  1  0  0
    4.9992   -1.2762    0.0000 C   0  0  0  0  0  0  0  0  0  2  0  0
    5.7430    0.0263    0.0000 C   0  0  0  0  0  0  0  0  0  3  0  0
    4.9869    1.3218    0.0000 C   0  0  0  0  0  0  0  0  0  4  0  0
    3.4870    1.3147    0.0000 C   0  0  0  0  0  0  0  0  0  5  0  0
    2.7431    0.0122    0.0000 C   0  0  0  0  0  0  0  0  0  6  0  0
    1.2431    0.0051    0.0000 C   0  0  0  0  0  0  0  0  0  7  0  0
    0.4870    1.3006    0.0000 C   0  0  0  0  0  0  0  0  0  8  0  0
    1.2309    2.6032    0.0000 C   0  0  0  0  0  0  0  0  0  9  0  0
    0.4748    3.8987    0.0000 O   0  0  0  0  0  0  0  0  0 10  0  0
    2.7309    2.6102    0.0000 O   0  0  0  0  0  0  0  0  0 11  0  0
    2.9041   -2.3253    0.0000 H   0  0  0  0  0  0  0  0  0  0  0  0
    5.7553   -2.5717    0.0000 O   0  0  0  0  0  0  0  0  0  0  0  0
    7.2430    0.0334    0.0000 O   0  0  0  0  0  0  0  0  0  0  0  0
    7.9991   -1.2621    0.0000 C   0  0  0  0  0  0  0  0  0  0  0  0
    5.7308    2.6244    0.0000 O   0  0  0  0  0  0  0  0  0  0  0  0
    7.2308    2.6314    0.0000 C   0  0  0  0  0  0  0  0  0  0  0  0
    7.9747    3.9340    0.0000 O   0  0  0  0  0  0  0  0  0  0  0  0
    7.9869    1.3359    0.0000 C   0  0  0  0  0  0  0  0  0  0  0  0
   -0.7130    1.2950    0.0000 H   0  0  0  0  0  0  0  0  0  0  0  0
    0.4992   -1.2974    0.0000 C   0  0  0  0  0  0  0  0  0  0  0  0
    1.2553   -2.5929    0.0000 C   0  0  0  0  0  0  0  0  0  0  0  0
    0.5114   -3.8955    0.0000 C   0  0  0  0  0  0  0  0  0  0  0  0
   -0.9886   -3.9025    0.0000 C   0  0  0  0  0  0  0  0  0  0  0  0
   -1.7447   -2.6070    0.0000 C   0  0  0  0  0  0  0  0  0  0  0  0
   -1.0008   -1.3045    0.0000 C   0  0  0  0  0  0  0  0  0  0  0  0
  1  2  1  0  0  0  0
  1  6  2  0  0  0  0
  2  3  2  0  0  0  0
  3  4  1  0  0  0  0
  4  5  2  0  0  0  0
  5  6  1  0  0  0  0
  5 11  1  0  0  0  0
  6  7  1  0  0  0  0
  7  8  2  0  0  0  0
  8  9  1  0  0  0  0
  9 10  2  0  0  0  0
  9 11  1  0  0  0  0
  1 12  1  0  0  0  0
  2 13  1  0  0  0  0
 14 15  1  0  0  0  0
  3 14  1  0  0  0  0
 16 17  1  0  0  0  0
 17 18  2  0  0  0  0
 17 19  1  0  0  0  0
  4 16  1  0  0  0  0
  8 20  1  0  0  0  0
 21 22  1  0  0  0  0
 21 26  2  0  0  0  0
 22 23  2  0  0  0  0
 23 24  1  0  0  0  0
 24 25  2  0  0  0  0
 25 26  1  0  0  0  0
  7 21  1  0  0  0  0
M  END
> <score_KierA3>
0.512219

$$$$
suggested molecule #234
 MOE2019            2D

 30 32  0  0  0  0  0  0  0  0999 V2000
    3.4992   -1.2833    0.0000 C   0  0  0  0  0  0  0  0  0  1  0  0
    4.9992   -1.2762    0.0000 C   0  0  0  0  0  0  0  0  0  2  0  0
    5.7430    0.0263    0.0000 C   0  0  0  0  0  0  0  0  0  3  0  0
    4.9869    1.3218    0.0000 C   0  0  0  0  0  0  0  0  0  4  0  0
    3.4870    1.3147    0.0000 C   0  0  0  0  0  0  0  0  0  5  0  0
    2.7431    0.0122    0.0000 C   0  0  0  0  0  0  0  0  0  6  0  0
    1.2431    0.0051    0.0000 C   0  0  0  0  0  0  0  0  0  7  0  0
    0.4870    1.3006    0.0000 C   0  0  0  0  0  0  0  0  0  8  0  0
    1.2309    2.6032    0.0000 C   0  0  0  0  0  0  0  0  0  9  0  0
    0.4748    3.8987    0.0000 O   0  0  0  0  0  0  0  0  0 10  0  0
    2.7309    2.6102    0.0000 O   0  0  0  0  0  0  0  0  0 11  0  0
    2.9041   -2.3253    0.0000 H   0  0  0  0  0  0  0  0  0  0  0  0
    5.7553   -2.5717    0.0000 O   0  0  0  0  0  0  0  0  0  0  0  0
    7.2430    0.0334    0.0000 O   0  0  0  0  0  0  0  0  0  0  0  0
    7.9991   -1.2621    0.0000 C   0  0  0  0  0  0  0  0  0  0  0  0
    9.2772    3.1901    0.0000 C   0  0  0  0  0  0  0  0  0  0  0  0
    7.9747    3.9340    0.0000 C   0  0  0  0  0  0  0  0  0  0  0  0
    6.6721    4.6778    0.0000 C   0  0  0  0  0  0  0  0  0  0  0  0
    7.2308    2.6314    0.0000 C   0  0  0  0  0  0  0  0  0  0  0  0
    5.7308    2.6244    0.0000 C   0  0  0  0  0  0  0  0  0  0  0  0
    7.9869    1.3359    0.0000 O   0  0  0  0  0  0  0  0  0  0  0  0
    8.7186    5.2365    0.0000 O   0  0  0  0  0  0  0  0  0  0  0  0
   10.2186    5.2436    0.0000 C   0  0  0  0  0  0  0  0  0  0  0  0
   -0.7130    1.2950    0.0000 H   0  0  0  0  0  0  0  0  0  0  0  0
    0.4992   -1.2974    0.0000 C   0  0  0  0  0  0  0  0  0  0  0  0
    1.2553   -2.5929    0.0000 C   0  0  0  0  0  0  0  0  0  0  0  0
    0.5114   -3.8955    0.0000 C   0  0  0  0  0  0  0  0  0  0  0  0
   -0.9886   -3.9025    0.0000 C   0  0  0  0  0  0  0  0  0  0  0  0
   -1.7447   -2.6070    0.0000 C   0  0  0  0  0  0  0  0  0  0  0  0
   -1.0008   -1.3045    0.0000 C   0  0  0  0  0  0  0  0  0  0  0  0
  1  2  1  0  0  0  0
  1  6  2  0  0  0  0
  2  3  2  0  0  0  0
  3  4  1  0  0  0  0
  4  5  2  0  0  0  0
  5  6  1  0  0  0  0
  5 11  1  0  0  0  0
  6  7  1  0  0  0  0
  7  8  2  0  0  0  0
  8  9  1  0  0  0  0
  9 10  2  0  0  0  0
  9 11  1  0  0  0  0
  1 12  1  0  0  0  0
  2 13  1  0  0  0  0
 14 15  1  0  0  0  0
  3 14  1  0  0  0  0
 16 17  1  0  0  0  0
 17 18  1  0  0  0  0
 17 19  1  0  0  0  0
 17 22  1  0  0  0  0
 19 20  1  0  0  0  0
 19 21  1  0  0  0  0
 22 23  1  0  0  0  0
  4 20  1  0  0  0  0
  8 24  1  0  0  0  0
 25 26  1  0  0  0  0
 25 30  2  0  0  0  0
 26 27  2  0  0  0  0
 27 28  1  0  0  0  0
 28 29  2  0  0  0  0
 29 30  1  0  0  0  0
  7 25  1  0  0  0  0
M  END
> <score_KierA3>
0.512301

$$$$
suggested molecule #235
 MOE2019            2D

 27 29  0  0  0  0  0  0  0  0999 V2000
    3.4992   -1.2833    0.0000 C   0  0  0  0  0  0  0  0  0  1  0  0
    4.9992   -1.2762    0.0000 C   0  0  0  0  0  0  0  0  0  2  0  0
    5.7430    0.0263    0.0000 C   0  0  0  0  0  0  0  0  0  3  0  0
    4.9869    1.3218    0.0000 C   0  0  0  0  0  0  0  0  0  4  0  0
    3.4870    1.3147    0.0000 C   0  0  0  0  0  0  0  0  0  5  0  0
    2.7431    0.0122    0.0000 C   0  0  0  0  0  0  0  0  0  6  0  0
    1.2431    0.0051    0.0000 C   0  0  0  0  0  0  0  0  0  7  0  0
    0.4870    1.3006    0.0000 C   0  0  0  0  0  0  0  0  0  8  0  0
    1.2309    2.6032    0.0000 C   0  0  0  0  0  0  0  0  0  9  0  0
    0.4748    3.8987    0.0000 O   0  0  0  0  0  0  0  0  0 10  0  0
    2.7309    2.6102    0.0000 O   0  0  0  0  0  0  0  0  0 11  0  0
    2.9041   -2.3253    0.0000 H   0  0  0  0  0  0  0  0  0  0  0  0
    5.7553   -2.5717    0.0000 O   0  0  0  0  0  0  0  0  0  0  0  0
    7.2430    0.0334    0.0000 O   0  0  0  0  0  0  0  0  0  0  0  0
    7.9991   -1.2621    0.0000 C   0  0  0  0  0  0  0  0  0  0  0  0
    5.7308    2.6244    0.0000 C   0  0  0  0  0  0  0  0  0  0  0  0
    7.2308    2.6314    0.0000 C   0  0  0  0  0  0  0  0  0  0  0  0
    7.9747    3.9340    0.0000 C   0  0  0  0  0  0  0  0  0  0  0  0
    9.4747    3.9410    0.0000 C   0  0  0  0  0  0  0  0  0  0  0  0
    7.2186    5.2295    0.0000 C   0  0  0  0  0  0  0  0  0  0  0  0
   -0.7130    1.2950    0.0000 H   0  0  0  0  0  0  0  0  0  0  0  0
    0.4992   -1.2974    0.0000 C   0  0  0  0  0  0  0  0  0  0  0  0
    1.2553   -2.5929    0.0000 C   0  0  0  0  0  0  0  0  0  0  0  0
    0.5114   -3.8955    0.0000 C   0  0  0  0  0  0  0  0  0  0  0  0
   -0.9886   -3.9025    0.0000 C   0  0  0  0  0  0  0  0  0  0  0  0
   -1.7447   -2.6070    0.0000 C   0  0  0  0  0  0  0  0  0  0  0  0
   -1.0008   -1.3045    0.0000 C   0  0  0  0  0  0  0  0  0  0  0  0
  1  2  1  0  0  0  0
  1  6  2  0  0  0  0
  2  3  2  0  0  0  0
  3  4  1  0  0  0  0
  4  5  2  0  0  0  0
  5  6  1  0  0  0  0
  5 11  1  0  0  0  0
  6  7  1  0  0  0  0
  7  8  2  0  0  0  0
  8  9  1  0  0  0  0
  9 10  2  0  0  0  0
  9 11  1  0  0  0  0
  1 12  1  0  0  0  0
  2 13  1  0  0  0  0
 14 15  1  0  0  0  0
  3 14  1  0  0  0  0
 16 17  1  0  0  0  0
 17 18  2  0  0  0  0
 18 19  1  0  0  0  0
 18 20  1  0  0  0  0
  4 16  1  0  0  0  0
  8 21  1  0  0  0  0
 22 23  1  0  0  0  0
 22 27  2  0  0  0  0
 23 24  2  0  0  0  0
 24 25  1  0  0  0  0
 25 26  2  0  0  0  0
 26 27  1  0  0  0  0
  7 22  1  0  0  0  0
M  END
> <score_KierA3>
0.512164

$$$$
suggested molecule #236
 MOE2019            2D

 32 34  0  0  0  0  0  0  0  0999 V2000
    3.4992   -1.2833    0.0000 C   0  0  0  0  0  0  0  0  0  1  0  0
    4.9992   -1.2762    0.0000 C   0  0  0  0  0  0  0  0  0  2  0  0
    5.7430    0.0263    0.0000 C   0  0  0  0  0  0  0  0  0  3  0  0
    4.9869    1.3218    0.0000 C   0  0  0  0  0  0  0  0  0  4  0  0
    3.4870    1.3147    0.0000 C   0  0  0  0  0  0  0  0  0  5  0  0
    2.7431    0.0122    0.0000 C   0  0  0  0  0  0  0  0  0  6  0  0
    1.2431    0.0051    0.0000 C   0  0  0  0  0  0  0  0  0  7  0  0
    0.4870    1.3006    0.0000 C   0  0  0  0  0  0  0  0  0  8  0  0
    1.2309    2.6032    0.0000 C   0  0  0  0  0  0  0  0  0  9  0  0
    0.4748    3.8987    0.0000 O   0  0  0  0  0  0  0  0  0 10  0  0
    2.7309    2.6102    0.0000 O   0  0  0  0  0  0  0  0  0 11  0  0
    2.9041   -2.3253    0.0000 H   0  0  0  0  0  0  0  0  0  0  0  0
    5.7553   -2.5717    0.0000 O   0  0  0  0  0  0  0  0  0  0  0  0
    7.2430    0.0334    0.0000 O   0  0  0  0  0  0  0  0  0  0  0  0
    7.9991   -1.2621    0.0000 C   0  0  0  0  0  0  0  0  0  0  0  0
    7.7186    5.2318    0.0000 C   0  0  0  0  0  0  0  0  0  0  0  0
    8.4747    3.9363    0.0000 C   0  0  0  0  0  0  0  0  0  0  0  0
    9.9747    3.9434    0.0000 C   0  0  0  0  0  0  0  0  0  0  0  0
    7.7308    2.6338    0.0000 C   0  0  0  0  0  0  0  0  0  0  0  0
    8.4869    1.3383    0.0000 O   0  0  0  0  0  0  0  0  0  0  0  0
    5.7308    2.6244    0.0000 C   0  0  0  0  0  0  0  0  0  0  0  0
    4.9747    3.9198    0.0000 O   0  0  0  0  0  0  0  0  0  0  0  0
    5.7186    5.2224    0.0000 C   0  0  0  0  0  0  0  0  0  0  0  0
    4.9625    6.5179    0.0000 O   0  0  0  0  0  0  0  0  0  0  0  0
    7.2186    5.2295    0.0000 C   0  0  0  0  0  0  0  0  0  0  0  0
   -0.7130    1.2950    0.0000 H   0  0  0  0  0  0  0  0  0  0  0  0
    0.4992   -1.2974    0.0000 C   0  0  0  0  0  0  0  0  0  0  0  0
    1.2553   -2.5929    0.0000 C   0  0  0  0  0  0  0  0  0  0  0  0
    0.5114   -3.8955    0.0000 C   0  0  0  0  0  0  0  0  0  0  0  0
   -0.9886   -3.9025    0.0000 C   0  0  0  0  0  0  0  0  0  0  0  0
   -1.7447   -2.6070    0.0000 C   0  0  0  0  0  0  0  0  0  0  0  0
   -1.0008   -1.3045    0.0000 C   0  0  0  0  0  0  0  0  0  0  0  0
  1  2  1  0  0  0  0
  1  6  2  0  0  0  0
  2  3  2  0  0  0  0
  3  4  1  0  0  0  0
  4  5  2  0  0  0  0
  5  6  1  0  0  0  0
  5 11  1  0  0  0  0
  6  7  1  0  0  0  0
  7  8  2  0  0  0  0
  8  9  1  0  0  0  0
  9 10  2  0  0  0  0
  9 11  1  0  0  0  0
  1 12  1  0  0  0  0
  2 13  1  0  0  0  0
 14 15  1  0  0  0  0
  3 14  1  0  0  0  0
 16 17  1  0  0  0  0
 17 18  1  0  0  0  0
 17 19  1  0  0  0  0
 19 20  2  0  0  0  0
 19 21  1  0  0  0  0
 21 22  1  0  0  0  0
 22 23  1  0  0  0  0
 23 24  2  0  0  0  0
 23 25  1  0  0  0  0
  4 21  1  0  0  0  0
  8 26  1  0  0  0  0
 27 28  1  0  0  0  0
 27 32  2  0  0  0  0
 28 29  2  0  0  0  0
 29 30  1  0  0  0  0
 30 31  2  0  0  0  0
 31 32  1  0  0  0  0
  7 27  1  0  0  0  0
M  END
> <score_KierA3>
0.512293

$$$$
suggested molecule #237
 MOE2019            2D

 42 47  0  0  1  0  0  0  0  0999 V2000
    3.4992   -1.2833    0.0000 C   0  0  0  0  0  0  0  0  0  1  0  0
    4.9992   -1.2762    0.0000 C   0  0  0  0  0  0  0  0  0  2  0  0
    5.7430    0.0263    0.0000 C   0  0  0  0  0  0  0  0  0  3  0  0
    4.9869    1.3218    0.0000 C   0  0  0  0  0  0  0  0  0  4  0  0
    3.4870    1.3147    0.0000 C   0  0  0  0  0  0  0  0  0  5  0  0
    2.7431    0.0122    0.0000 C   0  0  0  0  0  0  0  0  0  6  0  0
    1.2431    0.0051    0.0000 C   0  0  0  0  0  0  0  0  0  7  0  0
    0.4870    1.3006    0.0000 C   0  0  0  0  0  0  0  0  0  8  0  0
    1.2309    2.6032    0.0000 C   0  0  0  0  0  0  0  0  0  9  0  0
    0.4748    3.8987    0.0000 O   0  0  0  0  0  0  0  0  0 10  0  0
    2.7309    2.6102    0.0000 O   0  0  0  0  0  0  0  0  0 11  0  0
    2.9041   -2.3253    0.0000 H   0  0  0  0  0  0  0  0  0  0  0  0
    5.7553   -2.5717    0.0000 O   0  0  0  0  0  0  0  0  0  0  0  0
    7.2430    0.0334    0.0000 O   0  0  0  0  0  0  0  0  0  0  0  0
    7.9991   -1.2621    0.0000 C   0  0  0  0  0  0  0  0  0  0  0  0
    9.7348    1.7772    0.0000 C   0  0  0  0  0  0  0  0  0  0  0  0
   10.4910    0.4817    0.0000 C   0  0  0  0  0  0  0  0  0  0  0  0
    9.7471   -0.8209    0.0000 C   0  0  0  0  0  0  0  0  0  0  0  0
    8.2471   -0.8280    0.0000 C   0  0  0  0  0  0  0  0  0  0  0  0
    7.4910    0.4675    0.0000 C   0  0  0  0  0  0  0  0  0  0  0  0
    8.2349    1.7701    0.0000 C   0  0  0  0  0  0  0  0  0  0  0  0
    7.4788    3.0656    0.0000 C   0  0  1  0  0  0  0  0  0  0  0  0
    5.9788    3.0585    0.0000 C   0  0  0  0  0  0  0  0  0  0  0  0
    5.2227    4.3540    0.0000 C   0  0  0  0  0  0  0  0  0  0  0  0
    3.7227    4.3470    0.0000 O   0  0  0  0  0  0  0  0  0  0  0  0
    5.9666    5.6566    0.0000 C   0  0  0  0  0  0  0  0  0  0  0  0
    5.2105    6.9521    0.0000 C   0  0  0  0  0  0  0  0  0  0  0  0
    5.9543    8.2546    0.0000 C   0  0  0  0  0  0  0  0  0  0  0  0
    7.4543    8.2617    0.0000 C   0  0  0  0  0  0  0  0  0  0  0  0
    8.2104    6.9662    0.0000 C   0  0  0  0  0  0  0  0  0  0  0  0
    7.4665    5.6636    0.0000 C   0  0  0  0  0  0  0  0  0  0  0  0
    8.2226    4.3681    0.0000 O   0  0  0  0  0  0  0  0  0  0  0  0
    8.1982    9.5642    0.0000 O   0  0  0  0  0  0  0  0  0  0  0  0
    3.7105    6.9450    0.0000 O   0  0  0  0  0  0  0  0  0  0  0  0
   10.5032   -2.1164    0.0000 O   0  0  0  0  0  0  0  0  0  0  0  0
   -0.7130    1.2950    0.0000 H   0  0  0  0  0  0  0  0  0  0  0  0
    0.4992   -1.2974    0.0000 C   0  0  0  0  0  0  0  0  0  0  0  0
    1.2553   -2.5929    0.0000 C   0  0  0  0  0  0  0  0  0  0  0  0
    0.5114   -3.8955    0.0000 C   0  0  0  0  0  0  0  0  0  0  0  0
   -0.9886   -3.9025    0.0000 C   0  0  0  0  0  0  0  0  0  0  0  0
   -1.7447   -2.6070    0.0000 C   0  0  0  0  0  0  0  0  0  0  0  0
   -1.0008   -1.3045    0.0000 C   0  0  0  0  0  0  0  0  0  0  0  0
  1  2  1  0  0  0  0
  1  6  2  0  0  0  0
  2  3  2  0  0  0  0
  3  4  1  0  0  0  0
  4  5  2  0  0  0  0
  5  6  1  0  0  0  0
  5 11  1  0  0  0  0
  6  7  1  0  0  0  0
  7  8  2  0  0  0  0
  8  9  1  0  0  0  0
  9 10  2  0  0  0  0
  9 11  1  0  0  0  0
  1 12  1  0  0  0  0
  2 13  1  0  0  0  0
 14 15  1  0  0  0  0
  3 14  1  0  0  0  0
 16 17  1  0  0  0  0
 16 21  2  0  0  0  0
 17 18  2  0  0  0  0
 18 19  1  0  0  0  0
 18 35  1  0  0  0  0
 19 20  2  0  0  0  0
 20 21  1  0  0  0  0
 22 21  1  1  0  0  0
 22 23  1  0  0  0  0
 22 32  1  0  0  0  0
 23 24  1  0  0  0  0
 24 25  2  0  0  0  0
 24 26  1  0  0  0  0
 26 27  1  0  0  0  0
 26 31  2  0  0  0  0
 27 28  2  0  0  0  0
 27 34  1  0  0  0  0
 28 29  1  0  0  0  0
 29 30  2  0  0  0  0
 29 33  1  0  0  0  0
 30 31  1  0  0  0  0
 31 32  1  0  0  0  0
  4 23  1  0  0  0  0
  8 36  1  0  0  0  0
 37 38  1  0  0  0  0
 37 42  2  0  0  0  0
 38 39  2  0  0  0  0
 39 40  1  0  0  0  0
 40 41  2  0  0  0  0
 41 42  1  0  0  0  0
  7 37  1  0  0  0  0
M  END
> <score_KierA3>
0.512275

$$$$
suggested molecule #238
 MOE2019            2D

 39 41  0  0  0  0  0  0  0  0999 V2000
    3.4992   -1.2833    0.0000 C   0  0  0  0  0  0  0  0  0  1  0  0
    4.9992   -1.2762    0.0000 C   0  0  0  0  0  0  0  0  0  2  0  0
    5.7430    0.0263    0.0000 C   0  0  0  0  0  0  0  0  0  3  0  0
    4.9869    1.3218    0.0000 C   0  0  0  0  0  0  0  0  0  4  0  0
    3.4870    1.3147    0.0000 C   0  0  0  0  0  0  0  0  0  5  0  0
    2.7431    0.0122    0.0000 C   0  0  0  0  0  0  0  0  0  6  0  0
    1.2431    0.0051    0.0000 C   0  0  0  0  0  0  0  0  0  7  0  0
    0.4870    1.3006    0.0000 C   0  0  0  0  0  0  0  0  0  8  0  0
    1.2309    2.6032    0.0000 C   0  0  0  0  0  0  0  0  0  9  0  0
    0.4748    3.8987    0.0000 O   0  0  0  0  0  0  0  0  0 10  0  0
    2.7309    2.6102    0.0000 O   0  0  0  0  0  0  0  0  0 11  0  0
    2.9041   -2.3253    0.0000 H   0  0  0  0  0  0  0  0  0  0  0  0
    5.7553   -2.5717    0.0000 O   0  0  0  0  0  0  0  0  0  0  0  0
    7.2430    0.0334    0.0000 O   0  0  0  0  0  0  0  0  0  0  0  0
    7.9991   -1.2621    0.0000 C   0  0  0  0  0  0  0  0  0  0  0  0
    7.2064    7.8275    0.0000 C   0  0  0  0  0  0  0  0  0  0  0  0
    5.7064    7.8204    0.0000 C   0  0  0  0  0  0  0  0  0  0  0  0
    4.9625    6.5179    0.0000 C   0  0  0  0  0  0  0  0  0  0  0  0
    3.4625    6.5108    0.0000 C   0  0  0  0  0  0  0  0  0  0  0  0
    5.7186    5.2224    0.0000 C   0  0  0  0  0  0  0  0  0  0  0  0
    7.2186    5.2295    0.0000 O   0  0  0  0  0  0  0  0  0  0  0  0
    4.9747    3.9198    0.0000 O   0  0  0  0  0  0  0  0  0  0  0  0
    5.7308    2.6244    0.0000 C   0  0  0  0  0  0  0  0  0  0  0  0
    7.2308    2.6314    0.0000 C   0  0  0  0  0  0  0  0  0  0  0  0
    7.9747    3.9340    0.0000 C   0  0  0  0  0  0  0  0  0  0  0  0
    8.7186    5.2365    0.0000 O   0  0  0  0  0  0  0  0  0  0  0  0
    9.2772    3.1901    0.0000 C   0  0  0  0  0  0  0  0  0  0  0  0
    6.6721    4.6778    0.0000 C   0  0  0  0  0  0  0  0  0  0  0  0
    7.9869    1.3359    0.0000 O   0  0  0  0  0  0  0  0  0  0  0  0
    9.4869    1.3430    0.0000 C   0  0  0  0  0  0  0  0  0  0  0  0
   10.2308    2.6455    0.0000 O   0  0  0  0  0  0  0  0  0  0  0  0
   10.2430    0.0475    0.0000 C   0  0  0  0  0  0  0  0  0  0  0  0
   -0.7130    1.2950    0.0000 H   0  0  0  0  0  0  0  0  0  0  0  0
    0.4992   -1.2974    0.0000 C   0  0  0  0  0  0  0  0  0  0  0  0
   -1.0008   -1.3045    0.0000 C   0  0  0  0  0  0  0  0  0  0  0  0
   -1.7447   -2.6070    0.0000 C   0  0  0  0  0  0  0  0  0  0  0  0
   -0.9886   -3.9025    0.0000 C   0  0  0  0  0  0  0  0  0  0  0  0
    0.5114   -3.8955    0.0000 C   0  0  0  0  0  0  0  0  0  0  0  0
    1.2553   -2.5929    0.0000 C   0  0  0  0  0  0  0  0  0  0  0  0
  1  2  1  0  0  0  0
  1  6  2  0  0  0  0
  2  3  2  0  0  0  0
  3  4  1  0  0  0  0
  4  5  2  0  0  0  0
  5  6  1  0  0  0  0
  5 11  1  0  0  0  0
  6  7  1  0  0  0  0
  7  8  2  0  0  0  0
  8  9  1  0  0  0  0
  9 10  2  0  0  0  0
  9 11  1  0  0  0  0
  1 12  1  0  0  0  0
  2 13  1  0  0  0  0
 14 15  1  0  0  0  0
  3 14  1  0  0  0  0
 16 17  1  0  0  0  0
 17 18  2  0  0  0  0
 18 19  1  0  0  0  0
 18 20  1  0  0  0  0
 20 21  2  0  0  0  0
 20 22  1  0  0  0  0
 22 23  1  0  0  0  0
 23 24  1  0  0  0  0
 24 25  1  0  0  0  0
 24 29  1  0  0  0  0
 25 26  1  0  0  0  0
 25 27  1  0  0  0  0
 25 28  1  0  0  0  0
 29 30  1  0  0  0  0
 30 31  2  0  0  0  0
 30 32  1  0  0  0  0
  4 23  1  0  0  0  0
  8 33  1  0  0  0  0
 34 35  1  0  0  0  0
 34 39  2  0  0  0  0
 35 36  2  0  0  0  0
 36 37  1  0  0  0  0
 37 38  2  0  0  0  0
 38 39  1  0  0  0  0
  7 34  1  0  0  0  0
M  END
> <score_KierA3>
0.512284

$$$$
suggested molecule #239
 MOE2019            2D

 39 41  0  0  1  0  0  0  0  0999 V2000
    3.4992   -1.2833    0.0000 C   0  0  0  0  0  0  0  0  0  1  0  0
    4.9992   -1.2762    0.0000 C   0  0  0  0  0  0  0  0  0  2  0  0
    5.7430    0.0263    0.0000 C   0  0  0  0  0  0  0  0  0  3  0  0
    4.9869    1.3218    0.0000 C   0  0  0  0  0  0  0  0  0  4  0  0
    3.4870    1.3147    0.0000 C   0  0  0  0  0  0  0  0  0  5  0  0
    2.7431    0.0122    0.0000 C   0  0  0  0  0  0  0  0  0  6  0  0
    1.2431    0.0051    0.0000 C   0  0  0  0  0  0  0  0  0  7  0  0
    0.4870    1.3006    0.0000 C   0  0  0  0  0  0  0  0  0  8  0  0
    1.2309    2.6032    0.0000 C   0  0  0  0  0  0  0  0  0  9  0  0
    0.4748    3.8987    0.0000 O   0  0  0  0  0  0  0  0  0 10  0  0
    2.7309    2.6102    0.0000 O   0  0  0  0  0  0  0  0  0 11  0  0
    2.9041   -2.3253    0.0000 H   0  0  0  0  0  0  0  0  0  0  0  0
    5.7553   -2.5717    0.0000 O   0  0  0  0  0  0  0  0  0  0  0  0
    7.2430    0.0334    0.0000 O   0  0  0  0  0  0  0  0  0  0  0  0
    7.9991   -1.2621    0.0000 C   0  0  0  0  0  0  0  0  0  0  0  0
   12.4991   -1.2410    0.0000 C   0  0  0  0  0  0  0  0  0  0  0  0
   11.7430    0.0545    0.0000 C   0  0  0  0  0  0  0  0  0  0  0  0
   10.2430    0.0475    0.0000 C   0  0  0  0  0  0  0  0  0  0  0  0
    9.4869    1.3430    0.0000 C   0  0  0  0  0  0  0  0  0  0  0  0
   10.2308    2.6455    0.0000 O   0  0  0  0  0  0  0  0  0  0  0  0
    7.9869    1.3359    0.0000 O   0  0  0  0  0  0  0  0  0  0  0  0
    7.2308    2.6314    0.0000 C   0  0  2  0  0  0  0  0  0  0  0  0
    5.7308    2.6244    0.0000 C   0  0  0  0  0  0  0  0  0  0  0  0
    6.6721    4.6778    0.0000 O   0  0  0  0  0  0  0  0  0  0  0  0
    7.9747    3.9340    0.0000 C   0  0  0  0  0  0  0  0  0  0  0  0
    9.2772    3.1901    0.0000 C   0  0  0  0  0  0  0  0  0  0  0  0
    8.7186    5.2365    0.0000 C   0  0  0  0  0  0  0  0  0  0  0  0
    4.9747    3.9198    0.0000 O   0  0  0  0  0  0  0  0  0  0  0  0
    5.7186    5.2224    0.0000 C   0  0  0  0  0  0  0  0  0  0  0  0
    4.9625    6.5179    0.0000 O   0  0  0  0  0  0  0  0  0  0  0  0
    7.2186    5.2295    0.0000 C   0  0  0  0  0  0  0  0  0  0  0  0
   12.4869    1.3571    0.0000 C   0  0  0  0  0  0  0  0  0  0  0  0
   -0.7130    1.2950    0.0000 H   0  0  0  0  0  0  0  0  0  0  0  0
    0.4992   -1.2974    0.0000 C   0  0  0  0  0  0  0  0  0  0  0  0
    1.2553   -2.5929    0.0000 C   0  0  0  0  0  0  0  0  0  0  0  0
    0.5114   -3.8955    0.0000 C   0  0  0  0  0  0  0  0  0  0  0  0
   -0.9886   -3.9025    0.0000 C   0  0  0  0  0  0  0  0  0  0  0  0
   -1.7447   -2.6070    0.0000 C   0  0  0  0  0  0  0  0  0  0  0  0
   -1.0008   -1.3045    0.0000 C   0  0  0  0  0  0  0  0  0  0  0  0
  1  2  1  0  0  0  0
  1  6  2  0  0  0  0
  2  3  2  0  0  0  0
  3  4  1  0  0  0  0
  4  5  2  0  0  0  0
  5  6  1  0  0  0  0
  5 11  1  0  0  0  0
  6  7  1  0  0  0  0
  7  8  2  0  0  0  0
  8  9  1  0  0  0  0
  9 10  2  0  0  0  0
  9 11  1  0  0  0  0
  1 12  1  0  0  0  0
  2 13  1  0  0  0  0
 14 15  1  0  0  0  0
  3 14  1  0  0  0  0
 16 17  1  0  0  0  0
 17 18  2  0  0  0  0
 17 32  1  0  0  0  0
 18 19  1  0  0  0  0
 19 20  2  0  0  0  0
 19 21  1  0  0  0  0
 22 21  1  1  0  0  0
 22 23  1  0  0  0  0
 22 25  1  0  0  0  0
 23 28  1  0  0  0  0
 24 25  1  0  0  0  0
 25 26  1  0  0  0  0
 25 27  1  0  0  0  0
 28 29  1  0  0  0  0
 29 30  2  0  0  0  0
 29 31  1  0  0  0  0
  4 23  1  0  0  0  0
  8 33  1  0  0  0  0
 34 35  1  0  0  0  0
 34 39  2  0  0  0  0
 35 36  2  0  0  0  0
 36 37  1  0  0  0  0
 37 38  2  0  0  0  0
 38 39  1  0  0  0  0
  7 34  1  0  0  0  0
M  END
> <score_KierA3>
0.512278

$$$$
suggested molecule #240
 MOE2019            2D

 28 30  0  0  0  0  0  0  0  0999 V2000
    3.4992   -1.2833    0.0000 C   0  0  0  0  0  0  0  0  0  1  0  0
    4.9992   -1.2762    0.0000 C   0  0  0  0  0  0  0  0  0  2  0  0
    5.7430    0.0263    0.0000 C   0  0  0  0  0  0  0  0  0  3  0  0
    4.9869    1.3218    0.0000 C   0  0  0  0  0  0  0  0  0  4  0  0
    3.4870    1.3147    0.0000 C   0  0  0  0  0  0  0  0  0  5  0  0
    2.7431    0.0122    0.0000 C   0  0  0  0  0  0  0  0  0  6  0  0
    1.2431    0.0051    0.0000 C   0  0  0  0  0  0  0  0  0  7  0  0
    0.4870    1.3006    0.0000 C   0  0  0  0  0  0  0  0  0  8  0  0
    1.2309    2.6032    0.0000 C   0  0  0  0  0  0  0  0  0  9  0  0
    0.4748    3.8987    0.0000 O   0  0  0  0  0  0  0  0  0 10  0  0
    2.7309    2.6102    0.0000 O   0  0  0  0  0  0  0  0  0 11  0  0
    2.9041   -2.3253    0.0000 H   0  0  0  0  0  0  0  0  0  0  0  0
    5.7553   -2.5717    0.0000 O   0  0  0  0  0  0  0  0  0  0  0  0
    7.2430    0.0334    0.0000 O   0  0  0  0  0  0  0  0  0  0  0  0
    7.9991   -1.2621    0.0000 C   0  0  0  0  0  0  0  0  0  0  0  0
    5.7308    2.6244    0.0000 C   0  0  0  0  0  0  0  0  0  0  0  0
    7.2308    2.6314    0.0000 C   0  0  0  0  0  0  0  0  0  0  0  0
    7.9747    3.9340    0.0000 C   0  0  0  0  0  0  0  0  0  0  0  0
    9.2772    3.1901    0.0000 O   0  0  0  0  0  0  0  0  0  0  0  0
    6.6721    4.6778    0.0000 C   0  0  0  0  0  0  0  0  0  0  0  0
    8.7186    5.2365    0.0000 C   0  0  0  0  0  0  0  0  0  0  0  0
   -0.7130    1.2950    0.0000 H   0  0  0  0  0  0  0  0  0  0  0  0
    0.4992   -1.2974    0.0000 C   0  0  0  0  0  0  0  0  0  0  0  0
   -1.0008   -1.3045    0.0000 C   0  0  0  0  0  0  0  0  0  0  0  0
   -1.7447   -2.6070    0.0000 C   0  0  0  0  0  0  0  0  0  0  0  0
   -0.9886   -3.9025    0.0000 C   0  0  0  0  0  0  0  0  0  0  0  0
    0.5114   -3.8955    0.0000 C   0  0  0  0  0  0  0  0  0  0  0  0
    1.2553   -2.5929    0.0000 C   0  0  0  0  0  0  0  0  0  0  0  0
  1  2  1  0  0  0  0
  1  6  2  0  0  0  0
  2  3  2  0  0  0  0
  3  4  1  0  0  0  0
  4  5  2  0  0  0  0
  5  6  1  0  0  0  0
  5 11  1  0  0  0  0
  6  7  1  0  0  0  0
  7  8  2  0  0  0  0
  8  9  1  0  0  0  0
  9 10  2  0  0  0  0
  9 11  1  0  0  0  0
  1 12  1  0  0  0  0
  2 13  1  0  0  0  0
 14 15  1  0  0  0  0
  3 14  1  0  0  0  0
 16 17  2  0  0  0  0
 17 18  1  0  0  0  0
 18 19  1  0  0  0  0
 18 20  1  0  0  0  0
 18 21  1  0  0  0  0
  4 16  1  0  0  0  0
  8 22  1  0  0  0  0
 23 24  1  0  0  0  0
 23 28  2  0  0  0  0
 24 25  2  0  0  0  0
 25 26  1  0  0  0  0
 26 27  2  0  0  0  0
 27 28  1  0  0  0  0
  7 23  1  0  0  0  0
M  END
> <score_Kier3>
0.511439

$$$$
suggested molecule #241
 MOE2019            2D

 28 30  0  0  0  0  0  0  0  0999 V2000
    3.4992   -1.2833    0.0000 C   0  0  0  0  0  0  0  0  0  1  0  0
    4.9992   -1.2762    0.0000 C   0  0  0  0  0  0  0  0  0  2  0  0
    5.7430    0.0263    0.0000 C   0  0  0  0  0  0  0  0  0  3  0  0
    4.9869    1.3218    0.0000 C   0  0  0  0  0  0  0  0  0  4  0  0
    3.4870    1.3147    0.0000 C   0  0  0  0  0  0  0  0  0  5  0  0
    2.7431    0.0122    0.0000 C   0  0  0  0  0  0  0  0  0  6  0  0
    1.2431    0.0051    0.0000 C   0  0  0  0  0  0  0  0  0  7  0  0
    0.4870    1.3006    0.0000 C   0  0  0  0  0  0  0  0  0  8  0  0
    1.2309    2.6032    0.0000 C   0  0  0  0  0  0  0  0  0  9  0  0
    0.4748    3.8987    0.0000 O   0  0  0  0  0  0  0  0  0 10  0  0
    2.7309    2.6102    0.0000 O   0  0  0  0  0  0  0  0  0 11  0  0
    2.9041   -2.3253    0.0000 H   0  0  0  0  0  0  0  0  0  0  0  0
    5.7553   -2.5717    0.0000 O   0  0  0  0  0  0  0  0  0  0  0  0
    7.2430    0.0334    0.0000 O   0  0  0  0  0  0  0  0  0  0  0  0
    7.9991   -1.2621    0.0000 C   0  0  0  0  0  0  0  0  0  0  0  0
    5.7308    2.6244    0.0000 C   0  0  0  0  0  0  0  0  0  0  0  0
    7.2308    2.6314    0.0000 C   0  0  0  0  0  0  0  0  0  0  0  0
    7.9747    3.9340    0.0000 C   0  0  0  0  0  0  0  0  0  0  0  0
    9.2772    3.1901    0.0000 O   0  0  0  0  0  0  0  0  0  0  0  0
    6.6721    4.6778    0.0000 C   0  0  0  0  0  0  0  0  0  0  0  0
    8.7186    5.2365    0.0000 C   0  0  0  0  0  0  0  0  0  0  0  0
   -0.7130    1.2950    0.0000 H   0  0  0  0  0  0  0  0  0  0  0  0
    0.4992   -1.2974    0.0000 C   0  0  0  0  0  0  0  0  0  0  0  0
   -1.0008   -1.3045    0.0000 C   0  0  0  0  0  0  0  0  0  0  0  0
   -1.7447   -2.6070    0.0000 C   0  0  0  0  0  0  0  0  0  0  0  0
   -0.9886   -3.9025    0.0000 C   0  0  0  0  0  0  0  0  0  0  0  0
    0.5114   -3.8955    0.0000 C   0  0  0  0  0  0  0  0  0  0  0  0
    1.2553   -2.5929    0.0000 C   0  0  0  0  0  0  0  0  0  0  0  0
  1  2  1  0  0  0  0
  1  6  2  0  0  0  0
  2  3  2  0  0  0  0
  3  4  1  0  0  0  0
  4  5  2  0  0  0  0
  5  6  1  0  0  0  0
  5 11  1  0  0  0  0
  6  7  1  0  0  0  0
  7  8  2  0  0  0  0
  8  9  1  0  0  0  0
  9 10  2  0  0  0  0
  9 11  1  0  0  0  0
  1 12  1  0  0  0  0
  2 13  1  0  0  0  0
 14 15  1  0  0  0  0
  3 14  1  0  0  0  0
 16 17  2  0  0  0  0
 17 18  1  0  0  0  0
 18 19  1  0  0  0  0
 18 20  1  0  0  0  0
 18 21  1  0  0  0  0
  4 16  1  0  0  0  0
  8 22  1  0  0  0  0
 23 24  1  0  0  0  0
 23 28  2  0  0  0  0
 24 25  2  0  0  0  0
 25 26  1  0  0  0  0
 26 27  2  0  0  0  0
 27 28  1  0  0  0  0
  7 23  1  0  0  0  0
M  END
> <score_KierA3>
0.51233

$$$$
suggested molecule #242
 MOE2019            2D

 39 41  0  0  0  0  0  0  0  0999 V2000
    3.4992   -1.2833    0.0000 C   0  0  0  0  0  0  0  0  0  1  0  0
    4.9992   -1.2762    0.0000 C   0  0  0  0  0  0  0  0  0  2  0  0
    5.7430    0.0263    0.0000 C   0  0  0  0  0  0  0  0  0  3  0  0
    4.9869    1.3218    0.0000 C   0  0  0  0  0  0  0  0  0  4  0  0
    3.4870    1.3147    0.0000 C   0  0  0  0  0  0  0  0  0  5  0  0
    2.7431    0.0122    0.0000 C   0  0  0  0  0  0  0  0  0  6  0  0
    1.2431    0.0051    0.0000 C   0  0  0  0  0  0  0  0  0  7  0  0
    0.4870    1.3006    0.0000 C   0  0  0  0  0  0  0  0  0  8  0  0
    1.2309    2.6032    0.0000 C   0  0  0  0  0  0  0  0  0  9  0  0
    0.4748    3.8987    0.0000 O   0  0  0  0  0  0  0  0  0 10  0  0
    2.7309    2.6102    0.0000 O   0  0  0  0  0  0  0  0  0 11  0  0
    2.9041   -2.3253    0.0000 H   0  0  0  0  0  0  0  0  0  0  0  0
    5.7553   -2.5717    0.0000 O   0  0  0  0  0  0  0  0  0  0  0  0
    7.2430    0.0334    0.0000 O   0  0  0  0  0  0  0  0  0  0  0  0
    7.9991   -1.2621    0.0000 C   0  0  0  0  0  0  0  0  0  0  0  0
   12.4869    1.3571    0.0000 C   0  0  0  0  0  0  0  0  0  0  0  0
   11.7430    0.0545    0.0000 C   0  0  0  0  0  0  0  0  0  0  0  0
   10.2430    0.0475    0.0000 C   0  0  0  0  0  0  0  0  0  0  0  0
    9.4991   -1.2551    0.0000 C   0  0  0  0  0  0  0  0  0  0  0  0
    9.4869    1.3430    0.0000 C   0  0  0  0  0  0  0  0  0  0  0  0
   10.2308    2.6455    0.0000 O   0  0  0  0  0  0  0  0  0  0  0  0
    7.9869    1.3359    0.0000 O   0  0  0  0  0  0  0  0  0  0  0  0
    7.2308    2.6314    0.0000 C   0  0  0  0  0  0  0  0  0  0  0  0
    5.7308    2.6244    0.0000 C   0  0  0  0  0  0  0  0  0  0  0  0
    9.2772    3.1901    0.0000 O   0  0  0  0  0  0  0  0  0  0  0  0
    7.9747    3.9340    0.0000 C   0  0  0  0  0  0  0  0  0  0  0  0
    6.6721    4.6778    0.0000 C   0  0  0  0  0  0  0  0  0  0  0  0
    8.7186    5.2365    0.0000 C   0  0  0  0  0  0  0  0  0  0  0  0
    4.9747    3.9198    0.0000 O   0  0  0  0  0  0  0  0  0  0  0  0
    5.7186    5.2224    0.0000 C   0  0  0  0  0  0  0  0  0  0  0  0
    4.9625    6.5179    0.0000 O   0  0  0  0  0  0  0  0  0  0  0  0
    7.2186    5.2295    0.0000 C   0  0  0  0  0  0  0  0  0  0  0  0
   -0.7130    1.2950    0.0000 H   0  0  0  0  0  0  0  0  0  0  0  0
    0.4992   -1.2974    0.0000 C   0  0  0  0  0  0  0  0  0  0  0  0
    1.2553   -2.5929    0.0000 C   0  0  0  0  0  0  0  0  0  0  0  0
    0.5114   -3.8955    0.0000 C   0  0  0  0  0  0  0  0  0  0  0  0
   -0.9886   -3.9025    0.0000 C   0  0  0  0  0  0  0  0  0  0  0  0
   -1.7447   -2.6070    0.0000 C   0  0  0  0  0  0  0  0  0  0  0  0
   -1.0008   -1.3045    0.0000 C   0  0  0  0  0  0  0  0  0  0  0  0
  1  2  1  0  0  0  0
  1  6  2  0  0  0  0
  2  3  2  0  0  0  0
  3  4  1  0  0  0  0
  4  5  2  0  0  0  0
  5  6  1  0  0  0  0
  5 11  1  0  0  0  0
  6  7  1  0  0  0  0
  7  8  2  0  0  0  0
  8  9  1  0  0  0  0
  9 10  2  0  0  0  0
  9 11  1  0  0  0  0
  1 12  1  0  0  0  0
  2 13  1  0  0  0  0
 14 15  1  0  0  0  0
  3 14  1  0  0  0  0
 16 17  1  0  0  0  0
 17 18  2  0  0  0  0
 18 19  1  0  0  0  0
 18 20  1  0  0  0  0
 20 21  2  0  0  0  0
 20 22  1  0  0  0  0
 22 23  1  0  0  0  0
 23 24  1  0  0  0  0
 23 26  1  0  0  0  0
 24 29  1  0  0  0  0
 25 26  1  0  0  0  0
 26 27  1  0  0  0  0
 26 28  1  0  0  0  0
 29 30  1  0  0  0  0
 30 31  2  0  0  0  0
 30 32  1  0  0  0  0
  4 24  1  0  0  0  0
  8 33  1  0  0  0  0
 34 35  1  0  0  0  0
 34 39  2  0  0  0  0
 35 36  2  0  0  0  0
 36 37  1  0  0  0  0
 37 38  2  0  0  0  0
 38 39  1  0  0  0  0
  7 34  1  0  0  0  0
M  END
> <score_KierA3>
0.512284

$$$$
suggested molecule #243
 MOE2019            2D

 27 29  0  0  0  0  0  0  0  0999 V2000
    3.4992   -1.2833    0.0000 C   0  0  0  0  0  0  0  0  0  1  0  0
    4.9992   -1.2762    0.0000 C   0  0  0  0  0  0  0  0  0  2  0  0
    5.7430    0.0263    0.0000 C   0  0  0  0  0  0  0  0  0  3  0  0
    4.9869    1.3218    0.0000 C   0  0  0  0  0  0  0  0  0  4  0  0
    3.4870    1.3147    0.0000 C   0  0  0  0  0  0  0  0  0  5  0  0
    2.7431    0.0122    0.0000 C   0  0  0  0  0  0  0  0  0  6  0  0
    1.2431    0.0051    0.0000 C   0  0  0  0  0  0  0  0  0  7  0  0
    0.4870    1.3006    0.0000 C   0  0  0  0  0  0  0  0  0  8  0  0
    1.2309    2.6032    0.0000 C   0  0  0  0  0  0  0  0  0  9  0  0
    0.4748    3.8987    0.0000 O   0  0  0  0  0  0  0  0  0 10  0  0
    2.7309    2.6102    0.0000 O   0  0  0  0  0  0  0  0  0 11  0  0
    2.9041   -2.3253    0.0000 H   0  0  0  0  0  0  0  0  0  0  0  0
    5.7553   -2.5717    0.0000 O   0  0  0  0  0  0  0  0  0  0  0  0
    7.2430    0.0334    0.0000 O   0  0  0  0  0  0  0  0  0  0  0  0
    7.9991   -1.2621    0.0000 C   0  0  0  0  0  0  0  0  0  0  0  0
    5.7308    2.6244    0.0000 C   0  0  0  0  0  0  0  0  0  0  0  0
    7.0334    1.8805    0.0000 C   0  0  0  0  0  0  0  0  0  0  0  0
    4.4283    3.3682    0.0000 C   0  0  0  0  0  0  0  0  0  0  0  0
    6.4747    3.9269    0.0000 C   0  0  0  0  0  0  0  0  0  0  0  0
    7.9747    3.9340    0.0000 C   0  0  0  0  0  0  0  0  0  0  0  0
   -0.7130    1.2950    0.0000 H   0  0  0  0  0  0  0  0  0  0  0  0
    0.4992   -1.2974    0.0000 C   0  0  0  0  0  0  0  0  0  0  0  0
    1.2553   -2.5929    0.0000 C   0  0  0  0  0  0  0  0  0  0  0  0
    0.5114   -3.8955    0.0000 C   0  0  0  0  0  0  0  0  0  0  0  0
   -0.9886   -3.9025    0.0000 C   0  0  0  0  0  0  0  0  0  0  0  0
   -1.7447   -2.6070    0.0000 C   0  0  0  0  0  0  0  0  0  0  0  0
   -1.0008   -1.3045    0.0000 C   0  0  0  0  0  0  0  0  0  0  0  0
  1  2  1  0  0  0  0
  1  6  2  0  0  0  0
  2  3  2  0  0  0  0
  3  4  1  0  0  0  0
  4  5  2  0  0  0  0
  5  6  1  0  0  0  0
  5 11  1  0  0  0  0
  6  7  1  0  0  0  0
  7  8  2  0  0  0  0
  8  9  1  0  0  0  0
  9 10  2  0  0  0  0
  9 11  1  0  0  0  0
  1 12  1  0  0  0  0
  2 13  1  0  0  0  0
 14 15  1  0  0  0  0
  3 14  1  0  0  0  0
 16 17  1  0  0  0  0
 16 18  1  0  0  0  0
 16 19  1  0  0  0  0
 19 20  2  0  0  0  0
  4 16  1  0  0  0  0
  8 21  1  0  0  0  0
 22 23  1  0  0  0  0
 22 27  2  0  0  0  0
 23 24  2  0  0  0  0
 24 25  1  0  0  0  0
 25 26  2  0  0  0  0
 26 27  1  0  0  0  0
  7 22  1  0  0  0  0
M  END
> <score_Kier3>
0.511454

$$$$
suggested molecule #244
 MOE2019            2D

 27 29  0  0  0  0  0  0  0  0999 V2000
    3.4992   -1.2833    0.0000 C   0  0  0  0  0  0  0  0  0  1  0  0
    4.9992   -1.2762    0.0000 C   0  0  0  0  0  0  0  0  0  2  0  0
    5.7430    0.0263    0.0000 C   0  0  0  0  0  0  0  0  0  3  0  0
    4.9869    1.3218    0.0000 C   0  0  0  0  0  0  0  0  0  4  0  0
    3.4870    1.3147    0.0000 C   0  0  0  0  0  0  0  0  0  5  0  0
    2.7431    0.0122    0.0000 C   0  0  0  0  0  0  0  0  0  6  0  0
    1.2431    0.0051    0.0000 C   0  0  0  0  0  0  0  0  0  7  0  0
    0.4870    1.3006    0.0000 C   0  0  0  0  0  0  0  0  0  8  0  0
    1.2309    2.6032    0.0000 C   0  0  0  0  0  0  0  0  0  9  0  0
    0.4748    3.8987    0.0000 O   0  0  0  0  0  0  0  0  0 10  0  0
    2.7309    2.6102    0.0000 O   0  0  0  0  0  0  0  0  0 11  0  0
    2.9041   -2.3253    0.0000 H   0  0  0  0  0  0  0  0  0  0  0  0
    5.7553   -2.5717    0.0000 O   0  0  0  0  0  0  0  0  0  0  0  0
    7.2430    0.0334    0.0000 O   0  0  0  0  0  0  0  0  0  0  0  0
    7.9991   -1.2621    0.0000 C   0  0  0  0  0  0  0  0  0  0  0  0
    5.7308    2.6244    0.0000 C   0  0  0  0  0  0  0  0  0  0  0  0
    7.0334    1.8805    0.0000 C   0  0  0  0  0  0  0  0  0  0  0  0
    4.4283    3.3682    0.0000 C   0  0  0  0  0  0  0  0  0  0  0  0
    6.4747    3.9269    0.0000 C   0  0  0  0  0  0  0  0  0  0  0  0
    7.9747    3.9340    0.0000 C   0  0  0  0  0  0  0  0  0  0  0  0
   -0.7130    1.2950    0.0000 H   0  0  0  0  0  0  0  0  0  0  0  0
    0.4992   -1.2974    0.0000 C   0  0  0  0  0  0  0  0  0  0  0  0
    1.2553   -2.5929    0.0000 C   0  0  0  0  0  0  0  0  0  0  0  0
    0.5114   -3.8955    0.0000 C   0  0  0  0  0  0  0  0  0  0  0  0
   -0.9886   -3.9025    0.0000 C   0  0  0  0  0  0  0  0  0  0  0  0
   -1.7447   -2.6070    0.0000 C   0  0  0  0  0  0  0  0  0  0  0  0
   -1.0008   -1.3045    0.0000 C   0  0  0  0  0  0  0  0  0  0  0  0
  1  2  1  0  0  0  0
  1  6  2  0  0  0  0
  2  3  2  0  0  0  0
  3  4  1  0  0  0  0
  4  5  2  0  0  0  0
  5  6  1  0  0  0  0
  5 11  1  0  0  0  0
  6  7  1  0  0  0  0
  7  8  2  0  0  0  0
  8  9  1  0  0  0  0
  9 10  2  0  0  0  0
  9 11  1  0  0  0  0
  1 12  1  0  0  0  0
  2 13  1  0  0  0  0
 14 15  1  0  0  0  0
  3 14  1  0  0  0  0
 16 17  1  0  0  0  0
 16 18  1  0  0  0  0
 16 19  1  0  0  0  0
 19 20  2  0  0  0  0
  4 16  1  0  0  0  0
  8 21  1  0  0  0  0
 22 23  1  0  0  0  0
 22 27  2  0  0  0  0
 23 24  2  0  0  0  0
 24 25  1  0  0  0  0
 25 26  2  0  0  0  0
 26 27  1  0  0  0  0
  7 22  1  0  0  0  0
M  END
> <score_KierA3>
0.512324

$$$$
suggested molecule #245
 MOE2019            2D

 39 41  0  0  1  0  0  0  0  0999 V2000
    3.4992   -1.2833    0.0000 C   0  0  0  0  0  0  0  0  0  1  0  0
    4.9992   -1.2762    0.0000 C   0  0  0  0  0  0  0  0  0  2  0  0
    5.7430    0.0263    0.0000 C   0  0  0  0  0  0  0  0  0  3  0  0
    4.9869    1.3218    0.0000 C   0  0  0  0  0  0  0  0  0  4  0  0
    3.4870    1.3147    0.0000 C   0  0  0  0  0  0  0  0  0  5  0  0
    2.7431    0.0122    0.0000 C   0  0  0  0  0  0  0  0  0  6  0  0
    1.2431    0.0051    0.0000 C   0  0  0  0  0  0  0  0  0  7  0  0
    0.4870    1.3006    0.0000 C   0  0  0  0  0  0  0  0  0  8  0  0
    1.2309    2.6032    0.0000 C   0  0  0  0  0  0  0  0  0  9  0  0
    0.4748    3.8987    0.0000 O   0  0  0  0  0  0  0  0  0 10  0  0
    2.7309    2.6102    0.0000 O   0  0  0  0  0  0  0  0  0 11  0  0
    2.9041   -2.3253    0.0000 H   0  0  0  0  0  0  0  0  0  0  0  0
    5.7553   -2.5717    0.0000 O   0  0  0  0  0  0  0  0  0  0  0  0
    7.2430    0.0334    0.0000 O   0  0  0  0  0  0  0  0  0  0  0  0
    7.9991   -1.2621    0.0000 C   0  0  0  0  0  0  0  0  0  0  0  0
   12.4991   -1.2410    0.0000 C   0  0  0  0  0  0  0  0  0  0  0  0
   11.7430    0.0545    0.0000 C   0  0  0  0  0  0  0  0  0  0  0  0
   10.2430    0.0475    0.0000 C   0  0  0  0  0  0  0  0  0  0  0  0
    9.4991   -1.2551    0.0000 C   0  0  0  0  0  0  0  0  0  0  0  0
    9.4869    1.3430    0.0000 C   0  0  0  0  0  0  0  0  0  0  0  0
   10.2308    2.6455    0.0000 O   0  0  0  0  0  0  0  0  0  0  0  0
    7.9869    1.3359    0.0000 O   0  0  0  0  0  0  0  0  0  0  0  0
    7.2308    2.6314    0.0000 C   0  0  2  0  0  0  0  0  0  0  0  0
    5.7308    2.6244    0.0000 C   0  0  0  0  0  0  0  0  0  0  0  0
    6.6721    4.6778    0.0000 O   0  0  0  0  0  0  0  0  0  0  0  0
    7.9747    3.9340    0.0000 C   0  0  0  0  0  0  0  0  0  0  0  0
    8.7186    5.2365    0.0000 C   0  0  0  0  0  0  0  0  0  0  0  0
    9.2772    3.1901    0.0000 C   0  0  0  0  0  0  0  0  0  0  0  0
    4.9747    3.9198    0.0000 O   0  0  0  0  0  0  0  0  0  0  0  0
    5.7186    5.2224    0.0000 C   0  0  0  0  0  0  0  0  0  0  0  0
    4.9625    6.5179    0.0000 O   0  0  0  0  0  0  0  0  0  0  0  0
    7.2186    5.2295    0.0000 C   0  0  0  0  0  0  0  0  0  0  0  0
   -0.7130    1.2950    0.0000 H   0  0  0  0  0  0  0  0  0  0  0  0
    0.4992   -1.2974    0.0000 C   0  0  0  0  0  0  0  0  0  0  0  0
   -1.0008   -1.3045    0.0000 C   0  0  0  0  0  0  0  0  0  0  0  0
   -1.7447   -2.6070    0.0000 C   0  0  0  0  0  0  0  0  0  0  0  0
   -0.9886   -3.9025    0.0000 C   0  0  0  0  0  0  0  0  0  0  0  0
    0.5114   -3.8955    0.0000 C   0  0  0  0  0  0  0  0  0  0  0  0
    1.2553   -2.5929    0.0000 C   0  0  0  0  0  0  0  0  0  0  0  0
  1  2  1  0  0  0  0
  1  6  2  0  0  0  0
  2  3  2  0  0  0  0
  3  4  1  0  0  0  0
  4  5  2  0  0  0  0
  5  6  1  0  0  0  0
  5 11  1  0  0  0  0
  6  7  1  0  0  0  0
  7  8  2  0  0  0  0
  8  9  1  0  0  0  0
  9 10  2  0  0  0  0
  9 11  1  0  0  0  0
  1 12  1  0  0  0  0
  2 13  1  0  0  0  0
 14 15  1  0  0  0  0
  3 14  1  0  0  0  0
 16 17  1  0  0  0  0
 17 18  1  0  0  0  0
 18 19  1  0  0  0  0
 18 20  1  0  0  0  0
 20 21  2  0  0  0  0
 20 22  1  0  0  0  0
 23 22  1  1  0  0  0
 23 24  1  0  0  0  0
 23 26  1  0  0  0  0
 24 29  1  0  0  0  0
 25 26  1  0  0  0  0
 26 27  1  0  0  0  0
 26 28  1  0  0  0  0
 29 30  1  0  0  0  0
 30 31  2  0  0  0  0
 30 32  1  0  0  0  0
  4 24  1  0  0  0  0
  8 33  1  0  0  0  0
 34 35  1  0  0  0  0
 34 39  2  0  0  0  0
 35 36  2  0  0  0  0
 36 37  1  0  0  0  0
 37 38  2  0  0  0  0
 38 39  1  0  0  0  0
  7 34  1  0  0  0  0
M  END
> <score_KierA3>
0.512281

$$$$
suggested molecule #246
 MOE2019            2D

 39 41  0  0  1  0  0  0  0  0999 V2000
    3.4992   -1.2833    0.0000 C   0  0  0  0  0  0  0  0  0  1  0  0
    4.9992   -1.2762    0.0000 C   0  0  0  0  0  0  0  0  0  2  0  0
    5.7430    0.0263    0.0000 C   0  0  0  0  0  0  0  0  0  3  0  0
    4.9869    1.3218    0.0000 C   0  0  0  0  0  0  0  0  0  4  0  0
    3.4870    1.3147    0.0000 C   0  0  0  0  0  0  0  0  0  5  0  0
    2.7431    0.0122    0.0000 C   0  0  0  0  0  0  0  0  0  6  0  0
    1.2431    0.0051    0.0000 C   0  0  0  0  0  0  0  0  0  7  0  0
    0.4870    1.3006    0.0000 C   0  0  0  0  0  0  0  0  0  8  0  0
    1.2309    2.6032    0.0000 C   0  0  0  0  0  0  0  0  0  9  0  0
    0.4748    3.8987    0.0000 O   0  0  0  0  0  0  0  0  0 10  0  0
    2.7309    2.6102    0.0000 O   0  0  0  0  0  0  0  0  0 11  0  0
    2.9041   -2.3253    0.0000 H   0  0  0  0  0  0  0  0  0  0  0  0
    5.7553   -2.5717    0.0000 O   0  0  0  0  0  0  0  0  0  0  0  0
    7.2430    0.0334    0.0000 O   0  0  0  0  0  0  0  0  0  0  0  0
    7.9991   -1.2621    0.0000 C   0  0  0  0  0  0  0  0  0  0  0  0
    4.1942   10.4114    0.0000 C   0  0  0  0  0  0  0  0  0  0  0  0
    5.6942   10.4185    0.0000 C   0  0  0  0  0  0  0  0  0  0  0  0
    6.4380   11.7210    0.0000 C   0  0  0  0  0  0  0  0  0  0  0  0
    6.4503    9.1230    0.0000 C   0  0  0  0  0  0  0  0  0  0  0  0
    5.7064    7.8204    0.0000 C   0  0  0  0  0  0  0  0  0  0  0  0
    4.2064    7.8134    0.0000 O   0  0  0  0  0  0  0  0  0  0  0  0
    6.4625    6.5250    0.0000 O   0  0  0  0  0  0  0  0  0  0  0  0
    5.7186    5.2224    0.0000 C   0  0  0  0  0  0  0  0  0  0  0  0
    4.4161    5.9663    0.0000 C   0  0  0  0  0  0  0  0  0  0  0  0
    7.0212    4.4785    0.0000 C   0  0  0  0  0  0  0  0  0  0  0  0
    4.9747    3.9198    0.0000 C   0  0  2  0  0  0  0  0  0  0  0  0
    5.7308    2.6244    0.0000 C   0  0  0  0  0  0  0  0  0  0  0  0
    3.4747    3.9128    0.0000 O   0  0  0  0  0  0  0  0  0  0  0  0
    7.2308    2.6314    0.0000 O   0  0  0  0  0  0  0  0  0  0  0  0
    7.9747    3.9340    0.0000 C   0  0  0  0  0  0  0  0  0  0  0  0
    9.4747    3.9410    0.0000 O   0  0  0  0  0  0  0  0  0  0  0  0
    7.2186    5.2295    0.0000 C   0  0  0  0  0  0  0  0  0  0  0  0
   -0.7130    1.2950    0.0000 H   0  0  0  0  0  0  0  0  0  0  0  0
    0.4992   -1.2974    0.0000 C   0  0  0  0  0  0  0  0  0  0  0  0
    1.2553   -2.5929    0.0000 C   0  0  0  0  0  0  0  0  0  0  0  0
    0.5114   -3.8955    0.0000 C   0  0  0  0  0  0  0  0  0  0  0  0
   -0.9886   -3.9025    0.0000 C   0  0  0  0  0  0  0  0  0  0  0  0
   -1.7447   -2.6070    0.0000 C   0  0  0  0  0  0  0  0  0  0  0  0
   -1.0008   -1.3045    0.0000 C   0  0  0  0  0  0  0  0  0  0  0  0
  1  2  1  0  0  0  0
  1  6  2  0  0  0  0
  2  3  2  0  0  0  0
  3  4  1  0  0  0  0
  4  5  2  0  0  0  0
  5  6  1  0  0  0  0
  5 11  1  0  0  0  0
  6  7  1  0  0  0  0
  7  8  2  0  0  0  0
  8  9  1  0  0  0  0
  9 10  2  0  0  0  0
  9 11  1  0  0  0  0
  1 12  1  0  0  0  0
  2 13  1  0  0  0  0
 14 15  1  0  0  0  0
  3 14  1  0  0  0  0
 16 17  1  0  0  0  0
 17 18  1  0  0  0  0
 17 19  1  0  0  0  0
 19 20  1  0  0  0  0
 20 21  2  0  0  0  0
 20 22  1  0  0  0  0
 22 23  1  0  0  0  0
 23 24  1  0  0  0  0
 23 25  1  0  0  0  0
 26 23  1  1  0  0  0
 26 27  1  0  0  0  0
 26 28  1  0  0  0  0
 27 29  1  0  0  0  0
 29 30  1  0  0  0  0
 30 31  2  0  0  0  0
 30 32  1  0  0  0  0
  4 27  1  0  0  0  0
  8 33  1  0  0  0  0
 34 35  1  0  0  0  0
 34 39  2  0  0  0  0
 35 36  2  0  0  0  0
 36 37  1  0  0  0  0
 37 38  2  0  0  0  0
 38 39  1  0  0  0  0
  7 34  1  0  0  0  0
M  END
> <score_KierA3>
0.512275

$$$$
suggested molecule #247
 MOE2019            2D

 28 30  0  0  0  0  0  0  0  0999 V2000
    3.4992   -1.2833    0.0000 C   0  0  0  0  0  0  0  0  0  1  0  0
    4.9992   -1.2762    0.0000 C   0  0  0  0  0  0  0  0  0  2  0  0
    5.7430    0.0263    0.0000 C   0  0  0  0  0  0  0  0  0  3  0  0
    4.9869    1.3218    0.0000 C   0  0  0  0  0  0  0  0  0  4  0  0
    3.4870    1.3147    0.0000 C   0  0  0  0  0  0  0  0  0  5  0  0
    2.7431    0.0122    0.0000 C   0  0  0  0  0  0  0  0  0  6  0  0
    1.2431    0.0051    0.0000 C   0  0  0  0  0  0  0  0  0  7  0  0
    0.4870    1.3006    0.0000 C   0  0  0  0  0  0  0  0  0  8  0  0
    1.2309    2.6032    0.0000 C   0  0  0  0  0  0  0  0  0  9  0  0
    0.4748    3.8987    0.0000 O   0  0  0  0  0  0  0  0  0 10  0  0
    2.7309    2.6102    0.0000 O   0  0  0  0  0  0  0  0  0 11  0  0
    2.9041   -2.3253    0.0000 H   0  0  0  0  0  0  0  0  0  0  0  0
    5.7553   -2.5717    0.0000 O   0  0  0  0  0  0  0  0  0  0  0  0
    7.2430    0.0334    0.0000 O   0  0  0  0  0  0  0  0  0  0  0  0
    7.9991   -1.2621    0.0000 C   0  0  0  0  0  0  0  0  0  0  0  0
    7.2186    5.2295    0.0000 C   0  0  0  0  0  0  0  0  0  0  0  0
    7.9747    3.9340    0.0000 C   0  0  0  0  0  0  0  0  0  0  0  0
    9.4747    3.9410    0.0000 C   0  0  0  0  0  0  0  0  0  0  0  0
    7.2308    2.6314    0.0000 C   0  0  0  0  0  0  0  0  0  0  0  0
    5.7308    2.6244    0.0000 C   0  0  0  0  0  0  0  0  0  0  0  0
    7.9869    1.3359    0.0000 O   0  0  0  0  0  0  0  0  0  0  0  0
   -0.7130    1.2950    0.0000 H   0  0  0  0  0  0  0  0  0  0  0  0
    0.4992   -1.2974    0.0000 C   0  0  0  0  0  0  0  0  0  0  0  0
   -1.0008   -1.3045    0.0000 C   0  0  0  0  0  0  0  0  0  0  0  0
   -1.7447   -2.6070    0.0000 C   0  0  0  0  0  0  0  0  0  0  0  0
   -0.9886   -3.9025    0.0000 C   0  0  0  0  0  0  0  0  0  0  0  0
    0.5114   -3.8955    0.0000 C   0  0  0  0  0  0  0  0  0  0  0  0
    1.2553   -2.5929    0.0000 C   0  0  0  0  0  0  0  0  0  0  0  0
  1  2  1  0  0  0  0
  1  6  2  0  0  0  0
  2  3  2  0  0  0  0
  3  4  1  0  0  0  0
  4  5  2  0  0  0  0
  5  6  1  0  0  0  0
  5 11  1  0  0  0  0
  6  7  1  0  0  0  0
  7  8  2  0  0  0  0
  8  9  1  0  0  0  0
  9 10  2  0  0  0  0
  9 11  1  0  0  0  0
  1 12  1  0  0  0  0
  2 13  1  0  0  0  0
 14 15  1  0  0  0  0
  3 14  1  0  0  0  0
 16 17  1  0  0  0  0
 17 18  2  0  0  0  0
 17 19  1  0  0  0  0
 19 20  1  0  0  0  0
 19 21  1  0  0  0  0
  4 20  1  0  0  0  0
  8 22  1  0  0  0  0
 23 24  1  0  0  0  0
 23 28  2  0  0  0  0
 24 25  2  0  0  0  0
 25 26  1  0  0  0  0
 26 27  2  0  0  0  0
 27 28  1  0  0  0  0
  7 23  1  0  0  0  0
M  END
> <score_Kier3>
0.511445

$$$$
suggested molecule #248
 MOE2019            2D

 28 30  0  0  0  0  0  0  0  0999 V2000
    3.4992   -1.2833    0.0000 C   0  0  0  0  0  0  0  0  0  1  0  0
    4.9992   -1.2762    0.0000 C   0  0  0  0  0  0  0  0  0  2  0  0
    5.7430    0.0263    0.0000 C   0  0  0  0  0  0  0  0  0  3  0  0
    4.9869    1.3218    0.0000 C   0  0  0  0  0  0  0  0  0  4  0  0
    3.4870    1.3147    0.0000 C   0  0  0  0  0  0  0  0  0  5  0  0
    2.7431    0.0122    0.0000 C   0  0  0  0  0  0  0  0  0  6  0  0
    1.2431    0.0051    0.0000 C   0  0  0  0  0  0  0  0  0  7  0  0
    0.4870    1.3006    0.0000 C   0  0  0  0  0  0  0  0  0  8  0  0
    1.2309    2.6032    0.0000 C   0  0  0  0  0  0  0  0  0  9  0  0
    0.4748    3.8987    0.0000 O   0  0  0  0  0  0  0  0  0 10  0  0
    2.7309    2.6102    0.0000 O   0  0  0  0  0  0  0  0  0 11  0  0
    2.9041   -2.3253    0.0000 H   0  0  0  0  0  0  0  0  0  0  0  0
    5.7553   -2.5717    0.0000 O   0  0  0  0  0  0  0  0  0  0  0  0
    7.2430    0.0334    0.0000 O   0  0  0  0  0  0  0  0  0  0  0  0
    7.9991   -1.2621    0.0000 C   0  0  0  0  0  0  0  0  0  0  0  0
    7.2186    5.2295    0.0000 C   0  0  0  0  0  0  0  0  0  0  0  0
    7.9747    3.9340    0.0000 C   0  0  0  0  0  0  0  0  0  0  0  0
    9.4747    3.9410    0.0000 C   0  0  0  0  0  0  0  0  0  0  0  0
    7.2308    2.6314    0.0000 C   0  0  0  0  0  0  0  0  0  0  0  0
    5.7308    2.6244    0.0000 C   0  0  0  0  0  0  0  0  0  0  0  0
    7.9869    1.3359    0.0000 O   0  0  0  0  0  0  0  0  0  0  0  0
   -0.7130    1.2950    0.0000 H   0  0  0  0  0  0  0  0  0  0  0  0
    0.4992   -1.2974    0.0000 C   0  0  0  0  0  0  0  0  0  0  0  0
   -1.0008   -1.3045    0.0000 C   0  0  0  0  0  0  0  0  0  0  0  0
   -1.7447   -2.6070    0.0000 C   0  0  0  0  0  0  0  0  0  0  0  0
   -0.9886   -3.9025    0.0000 C   0  0  0  0  0  0  0  0  0  0  0  0
    0.5114   -3.8955    0.0000 C   0  0  0  0  0  0  0  0  0  0  0  0
    1.2553   -2.5929    0.0000 C   0  0  0  0  0  0  0  0  0  0  0  0
  1  2  1  0  0  0  0
  1  6  2  0  0  0  0
  2  3  2  0  0  0  0
  3  4  1  0  0  0  0
  4  5  2  0  0  0  0
  5  6  1  0  0  0  0
  5 11  1  0  0  0  0
  6  7  1  0  0  0  0
  7  8  2  0  0  0  0
  8  9  1  0  0  0  0
  9 10  2  0  0  0  0
  9 11  1  0  0  0  0
  1 12  1  0  0  0  0
  2 13  1  0  0  0  0
 14 15  1  0  0  0  0
  3 14  1  0  0  0  0
 16 17  1  0  0  0  0
 17 18  2  0  0  0  0
 17 19  1  0  0  0  0
 19 20  1  0  0  0  0
 19 21  1  0  0  0  0
  4 20  1  0  0  0  0
  8 22  1  0  0  0  0
 23 24  1  0  0  0  0
 23 28  2  0  0  0  0
 24 25  2  0  0  0  0
 25 26  1  0  0  0  0
 26 27  2  0  0  0  0
 27 28  1  0  0  0  0
  7 23  1  0  0  0  0
M  END
> <score_KierA3>
0.512315

$$$$
suggested molecule #249
 MOE2019            2D

 28 30  0  0  0  0  0  0  0  0999 V2000
    3.4992   -1.2833    0.0000 C   0  0  0  0  0  0  0  0  0  1  0  0
    4.9992   -1.2762    0.0000 C   0  0  0  0  0  0  0  0  0  2  0  0
    5.7430    0.0263    0.0000 C   0  0  0  0  0  0  0  0  0  3  0  0
    4.9869    1.3218    0.0000 C   0  0  0  0  0  0  0  0  0  4  0  0
    3.4870    1.3147    0.0000 C   0  0  0  0  0  0  0  0  0  5  0  0
    2.7431    0.0122    0.0000 C   0  0  0  0  0  0  0  0  0  6  0  0
    1.2431    0.0051    0.0000 C   0  0  0  0  0  0  0  0  0  7  0  0
    0.4870    1.3006    0.0000 C   0  0  0  0  0  0  0  0  0  8  0  0
    1.2309    2.6032    0.0000 C   0  0  0  0  0  0  0  0  0  9  0  0
    0.4748    3.8987    0.0000 O   0  0  0  0  0  0  0  0  0 10  0  0
    2.7309    2.6102    0.0000 O   0  0  0  0  0  0  0  0  0 11  0  0
    2.9041   -2.3253    0.0000 H   0  0  0  0  0  0  0  0  0  0  0  0
    5.7553   -2.5717    0.0000 O   0  0  0  0  0  0  0  0  0  0  0  0
    7.2430    0.0334    0.0000 O   0  0  0  0  0  0  0  0  0  0  0  0
    7.9991   -1.2621    0.0000 C   0  0  0  0  0  0  0  0  0  0  0  0
    7.2186    5.2295    0.0000 C   0  0  0  0  0  0  0  0  0  0  0  0
    7.9747    3.9340    0.0000 C   0  0  0  0  0  0  0  0  0  0  0  0
    9.4747    3.9410    0.0000 C   0  0  0  0  0  0  0  0  0  0  0  0
    7.2308    2.6314    0.0000 C   0  0  0  0  0  0  0  0  0  0  0  0
    5.7308    2.6244    0.0000 C   0  0  0  0  0  0  0  0  0  0  0  0
    7.9869    1.3359    0.0000 O   0  0  0  0  0  0  0  0  0  0  0  0
   -0.7130    1.2950    0.0000 H   0  0  0  0  0  0  0  0  0  0  0  0
    0.4992   -1.2974    0.0000 C   0  0  0  0  0  0  0  0  0  0  0  0
    1.2553   -2.5929    0.0000 C   0  0  0  0  0  0  0  0  0  0  0  0
    0.5114   -3.8955    0.0000 C   0  0  0  0  0  0  0  0  0  0  0  0
   -0.9886   -3.9025    0.0000 C   0  0  0  0  0  0  0  0  0  0  0  0
   -1.7447   -2.6070    0.0000 C   0  0  0  0  0  0  0  0  0  0  0  0
   -1.0008   -1.3045    0.0000 C   0  0  0  0  0  0  0  0  0  0  0  0
  1  2  1  0  0  0  0
  1  6  2  0  0  0  0
  2  3  2  0  0  0  0
  3  4  1  0  0  0  0
  4  5  2  0  0  0  0
  5  6  1  0  0  0  0
  5 11  1  0  0  0  0
  6  7  1  0  0  0  0
  7  8  2  0  0  0  0
  8  9  1  0  0  0  0
  9 10  2  0  0  0  0
  9 11  1  0  0  0  0
  1 12  1  0  0  0  0
  2 13  1  0  0  0  0
 14 15  1  0  0  0  0
  3 14  1  0  0  0  0
 16 17  1  0  0  0  0
 17 18  1  0  0  0  0
 17 19  1  0  0  0  0
 19 20  1  0  0  0  0
 19 21  1  0  0  0  0
  4 20  1  0  0  0  0
  8 22  1  0  0  0  0
 23 24  1  0  0  0  0
 23 28  2  0  0  0  0
 24 25  2  0  0  0  0
 25 26  1  0  0  0  0
 26 27  2  0  0  0  0
 27 28  1  0  0  0  0
  7 23  1  0  0  0  0
M  END
> <score_Kier3>
0.511445

$$$$
suggested molecule #250
 MOE2019            2D

 28 30  0  0  0  0  0  0  0  0999 V2000
    3.4992   -1.2833    0.0000 C   0  0  0  0  0  0  0  0  0  1  0  0
    4.9992   -1.2762    0.0000 C   0  0  0  0  0  0  0  0  0  2  0  0
    5.7430    0.0263    0.0000 C   0  0  0  0  0  0  0  0  0  3  0  0
    4.9869    1.3218    0.0000 C   0  0  0  0  0  0  0  0  0  4  0  0
    3.4870    1.3147    0.0000 C   0  0  0  0  0  0  0  0  0  5  0  0
    2.7431    0.0122    0.0000 C   0  0  0  0  0  0  0  0  0  6  0  0
    1.2431    0.0051    0.0000 C   0  0  0  0  0  0  0  0  0  7  0  0
    0.4870    1.3006    0.0000 C   0  0  0  0  0  0  0  0  0  8  0  0
    1.2309    2.6032    0.0000 C   0  0  0  0  0  0  0  0  0  9  0  0
    0.4748    3.8987    0.0000 O   0  0  0  0  0  0  0  0  0 10  0  0
    2.7309    2.6102    0.0000 O   0  0  0  0  0  0  0  0  0 11  0  0
    2.9041   -2.3253    0.0000 H   0  0  0  0  0  0  0  0  0  0  0  0
    5.7553   -2.5717    0.0000 O   0  0  0  0  0  0  0  0  0  0  0  0
    7.2430    0.0334    0.0000 O   0  0  0  0  0  0  0  0  0  0  0  0
    7.9991   -1.2621    0.0000 C   0  0  0  0  0  0  0  0  0  0  0  0
    7.2186    5.2295    0.0000 C   0  0  0  0  0  0  0  0  0  0  0  0
    7.9747    3.9340    0.0000 C   0  0  0  0  0  0  0  0  0  0  0  0
    9.4747    3.9410    0.0000 C   0  0  0  0  0  0  0  0  0  0  0  0
    7.2308    2.6314    0.0000 C   0  0  0  0  0  0  0  0  0  0  0  0
    5.7308    2.6244    0.0000 C   0  0  0  0  0  0  0  0  0  0  0  0
    7.9869    1.3359    0.0000 O   0  0  0  0  0  0  0  0  0  0  0  0
   -0.7130    1.2950    0.0000 H   0  0  0  0  0  0  0  0  0  0  0  0
    0.4992   -1.2974    0.0000 C   0  0  0  0  0  0  0  0  0  0  0  0
    1.2553   -2.5929    0.0000 C   0  0  0  0  0  0  0  0  0  0  0  0
    0.5114   -3.8955    0.0000 C   0  0  0  0  0  0  0  0  0  0  0  0
   -0.9886   -3.9025    0.0000 C   0  0  0  0  0  0  0  0  0  0  0  0
   -1.7447   -2.6070    0.0000 C   0  0  0  0  0  0  0  0  0  0  0  0
   -1.0008   -1.3045    0.0000 C   0  0  0  0  0  0  0  0  0  0  0  0
  1  2  1  0  0  0  0
  1  6  2  0  0  0  0
  2  3  2  0  0  0  0
  3  4  1  0  0  0  0
  4  5  2  0  0  0  0
  5  6  1  0  0  0  0
  5 11  1  0  0  0  0
  6  7  1  0  0  0  0
  7  8  2  0  0  0  0
  8  9  1  0  0  0  0
  9 10  2  0  0  0  0
  9 11  1  0  0  0  0
  1 12  1  0  0  0  0
  2 13  1  0  0  0  0
 14 15  1  0  0  0  0
  3 14  1  0  0  0  0
 16 17  1  0  0  0  0
 17 18  1  0  0  0  0
 17 19  1  0  0  0  0
 19 20  1  0  0  0  0
 19 21  1  0  0  0  0
  4 20  1  0  0  0  0
  8 22  1  0  0  0  0
 23 24  1  0  0  0  0
 23 28  2  0  0  0  0
 24 25  2  0  0  0  0
 25 26  1  0  0  0  0
 26 27  2  0  0  0  0
 27 28  1  0  0  0  0
  7 23  1  0  0  0  0
M  END
> <score_KierA3>
0.512312

$$$$
suggested molecule #251
 MOE2019            2D

 42 44  0  0  0  0  0  0  0  0999 V2000
    3.4992   -1.2833    0.0000 C   0  0  0  0  0  0  0  0  0  1  0  0
    4.9992   -1.2762    0.0000 C   0  0  0  0  0  0  0  0  0  2  0  0
    5.7430    0.0263    0.0000 C   0  0  0  0  0  0  0  0  0  3  0  0
    4.9869    1.3218    0.0000 C   0  0  0  0  0  0  0  0  0  4  0  0
    3.4870    1.3147    0.0000 C   0  0  0  0  0  0  0  0  0  5  0  0
    2.7431    0.0122    0.0000 C   0  0  0  0  0  0  0  0  0  6  0  0
    1.2431    0.0051    0.0000 C   0  0  0  0  0  0  0  0  0  7  0  0
    0.4870    1.3006    0.0000 C   0  0  0  0  0  0  0  0  0  8  0  0
    1.2309    2.6032    0.0000 C   0  0  0  0  0  0  0  0  0  9  0  0
    0.4748    3.8987    0.0000 O   0  0  0  0  0  0  0  0  0 10  0  0
    2.7309    2.6102    0.0000 O   0  0  0  0  0  0  0  0  0 11  0  0
    2.9041   -2.3253    0.0000 H   0  0  0  0  0  0  0  0  0  0  0  0
    5.7553   -2.5717    0.0000 O   0  0  0  0  0  0  0  0  0  0  0  0
    7.2430    0.0334    0.0000 O   0  0  0  0  0  0  0  0  0  0  0  0
    7.9991   -1.2621    0.0000 C   0  0  0  0  0  0  0  0  0  0  0  0
    4.9503    9.1159    0.0000 C   0  0  0  0  0  0  0  0  0  0  0  0
    5.7064    7.8204    0.0000 C   0  0  0  0  0  0  0  0  0  0  0  0
    4.9625    6.5179    0.0000 C   0  0  0  0  0  0  0  0  0  0  0  0
    5.7186    5.2224    0.0000 C   0  0  0  0  0  0  0  0  0  0  0  0
    7.2186    5.2295    0.0000 O   0  0  0  0  0  0  0  0  0  0  0  0
    4.9747    3.9198    0.0000 O   0  0  0  0  0  0  0  0  0  0  0  0
    5.7308    2.6244    0.0000 C   0  0  0  0  0  0  0  0  0  0  0  0
    7.2308    2.6314    0.0000 C   0  0  0  0  0  0  0  0  0  0  0  0
    7.9747    3.9340    0.0000 C   0  0  0  0  0  0  0  0  0  0  0  0
    6.6721    4.6778    0.0000 O   0  0  0  0  0  0  0  0  0  0  0  0
    9.2772    3.1901    0.0000 C   0  0  0  0  0  0  0  0  0  0  0  0
    8.7186    5.2365    0.0000 C   0  0  0  0  0  0  0  0  0  0  0  0
    7.9869    1.3359    0.0000 O   0  0  0  0  0  0  0  0  0  0  0  0
    9.4869    1.3430    0.0000 C   0  0  0  0  0  0  0  0  0  0  0  0
   10.2308    2.6455    0.0000 O   0  0  0  0  0  0  0  0  0  0  0  0
   10.2430    0.0475    0.0000 C   0  0  0  0  0  0  0  0  0  0  0  0
   11.7430    0.0545    0.0000 C   0  0  0  0  0  0  0  0  0  0  0  0
   12.4991   -1.2410    0.0000 C   0  0  0  0  0  0  0  0  0  0  0  0
   12.4869    1.3571    0.0000 C   0  0  0  0  0  0  0  0  0  0  0  0
    7.2064    7.8275    0.0000 C   0  0  0  0  0  0  0  0  0  0  0  0
   -0.7130    1.2950    0.0000 H   0  0  0  0  0  0  0  0  0  0  0  0
    0.4992   -1.2974    0.0000 C   0  0  0  0  0  0  0  0  0  0  0  0
   -1.0008   -1.3045    0.0000 C   0  0  0  0  0  0  0  0  0  0  0  0
   -1.7447   -2.6070    0.0000 C   0  0  0  0  0  0  0  0  0  0  0  0
   -0.9886   -3.9025    0.0000 C   0  0  0  0  0  0  0  0  0  0  0  0
    0.5114   -3.8955    0.0000 C   0  0  0  0  0  0  0  0  0  0  0  0
    1.2553   -2.5929    0.0000 C   0  0  0  0  0  0  0  0  0  0  0  0
  1  2  1  0  0  0  0
  1  6  2  0  0  0  0
  2  3  2  0  0  0  0
  3  4  1  0  0  0  0
  4  5  2  0  0  0  0
  5  6  1  0  0  0  0
  5 11  1  0  0  0  0
  6  7  1  0  0  0  0
  7  8  2  0  0  0  0
  8  9  1  0  0  0  0
  9 10  2  0  0  0  0
  9 11  1  0  0  0  0
  1 12  1  0  0  0  0
  2 13  1  0  0  0  0
 14 15  1  0  0  0  0
  3 14  1  0  0  0  0
 16 17  1  0  0  0  0
 17 18  2  0  0  0  0
 17 35  1  0  0  0  0
 18 19  1  0  0  0  0
 19 20  2  0  0  0  0
 19 21  1  0  0  0  0
 21 22  1  0  0  0  0
 22 23  1  0  0  0  0
 23 24  1  0  0  0  0
 23 28  1  0  0  0  0
 24 25  1  0  0  0  0
 24 26  1  0  0  0  0
 24 27  1  0  0  0  0
 28 29  1  0  0  0  0
 29 30  2  0  0  0  0
 29 31  1  0  0  0  0
 31 32  2  0  0  0  0
 32 33  1  0  0  0  0
 32 34  1  0  0  0  0
  4 22  1  0  0  0  0
  8 36  1  0  0  0  0
 37 38  1  0  0  0  0
 37 42  2  0  0  0  0
 38 39  2  0  0  0  0
 39 40  1  0  0  0  0
 40 41  2  0  0  0  0
 41 42  1  0  0  0  0
  7 37  1  0  0  0  0
M  END
> <score_KierA3>
0.512261

$$$$
suggested molecule #252
 MOE2019            2D

 42 44  0  0  0  0  0  0  0  0999 V2000
    3.4992   -1.2833    0.0000 C   0  0  0  0  0  0  0  0  0  1  0  0
    4.9992   -1.2762    0.0000 C   0  0  0  0  0  0  0  0  0  2  0  0
    5.7430    0.0263    0.0000 C   0  0  0  0  0  0  0  0  0  3  0  0
    4.9869    1.3218    0.0000 C   0  0  0  0  0  0  0  0  0  4  0  0
    3.4870    1.3147    0.0000 C   0  0  0  0  0  0  0  0  0  5  0  0
    2.7431    0.0122    0.0000 C   0  0  0  0  0  0  0  0  0  6  0  0
    1.2431    0.0051    0.0000 C   0  0  0  0  0  0  0  0  0  7  0  0
    0.4870    1.3006    0.0000 C   0  0  0  0  0  0  0  0  0  8  0  0
    1.2309    2.6032    0.0000 C   0  0  0  0  0  0  0  0  0  9  0  0
    0.4748    3.8987    0.0000 O   0  0  0  0  0  0  0  0  0 10  0  0
    2.7309    2.6102    0.0000 O   0  0  0  0  0  0  0  0  0 11  0  0
    2.9041   -2.3253    0.0000 H   0  0  0  0  0  0  0  0  0  0  0  0
    5.7553   -2.5717    0.0000 O   0  0  0  0  0  0  0  0  0  0  0  0
    7.2430    0.0334    0.0000 O   0  0  0  0  0  0  0  0  0  0  0  0
    7.9991   -1.2621    0.0000 C   0  0  0  0  0  0  0  0  0  0  0  0
   12.4869    1.3571    0.0000 C   0  0  0  0  0  0  0  0  0  0  0  0
   11.7308    2.6526    0.0000 C   0  0  0  0  0  0  0  0  0  0  0  0
   12.4746    3.9551    0.0000 C   0  0  0  0  0  0  0  0  0  0  0  0
   10.2308    2.6455    0.0000 C   0  0  0  0  0  0  0  0  0  0  0  0
    9.4747    3.9410    0.0000 C   0  0  0  0  0  0  0  0  0  0  0  0
   10.2186    5.2436    0.0000 O   0  0  0  0  0  0  0  0  0  0  0  0
    7.9747    3.9340    0.0000 O   0  0  0  0  0  0  0  0  0  0  0  0
    7.2308    2.6314    0.0000 C   0  0  0  0  0  0  0  0  0  0  0  0
    5.7308    2.6244    0.0000 C   0  0  0  0  0  0  0  0  0  0  0  0
    8.7430    0.0404    0.0000 O   0  0  0  0  0  0  0  0  0  0  0  0
    7.9869    1.3359    0.0000 C   0  0  0  0  0  0  0  0  0  0  0  0
    6.6914    0.5798    0.0000 C   0  0  0  0  0  0  0  0  0  0  0  0
    9.2824    2.0920    0.0000 C   0  0  0  0  0  0  0  0  0  0  0  0
    4.9747    3.9198    0.0000 O   0  0  0  0  0  0  0  0  0  0  0  0
    5.7186    5.2224    0.0000 C   0  0  0  0  0  0  0  0  0  0  0  0
    7.2186    5.2295    0.0000 O   0  0  0  0  0  0  0  0  0  0  0  0
    4.9625    6.5179    0.0000 C   0  0  0  0  0  0  0  0  0  0  0  0
    5.7064    7.8204    0.0000 C   0  0  0  0  0  0  0  0  0  0  0  0
    4.9503    9.1159    0.0000 C   0  0  0  0  0  0  0  0  0  0  0  0
    7.2064    7.8275    0.0000 C   0  0  0  0  0  0  0  0  0  0  0  0
   -0.7130    1.2950    0.0000 H   0  0  0  0  0  0  0  0  0  0  0  0
    0.4992   -1.2974    0.0000 C   0  0  0  0  0  0  0  0  0  0  0  0
   -1.0008   -1.3045    0.0000 C   0  0  0  0  0  0  0  0  0  0  0  0
   -1.7447   -2.6070    0.0000 C   0  0  0  0  0  0  0  0  0  0  0  0
   -0.9886   -3.9025    0.0000 C   0  0  0  0  0  0  0  0  0  0  0  0
    0.5114   -3.8955    0.0000 C   0  0  0  0  0  0  0  0  0  0  0  0
    1.2553   -2.5929    0.0000 C   0  0  0  0  0  0  0  0  0  0  0  0
  1  2  1  0  0  0  0
  1  6  2  0  0  0  0
  2  3  2  0  0  0  0
  3  4  1  0  0  0  0
  4  5  2  0  0  0  0
  5  6  1  0  0  0  0
  5 11  1  0  0  0  0
  6  7  1  0  0  0  0
  7  8  2  0  0  0  0
  8  9  1  0  0  0  0
  9 10  2  0  0  0  0
  9 11  1  0  0  0  0
  1 12  1  0  0  0  0
  2 13  1  0  0  0  0
 14 15  1  0  0  0  0
  3 14  1  0  0  0  0
 16 17  1  0  0  0  0
 17 18  1  0  0  0  0
 17 19  1  0  0  0  0
 19 20  1  0  0  0  0
 20 21  2  0  0  0  0
 20 22  1  0  0  0  0
 22 23  1  0  0  0  0
 23 24  1  0  0  0  0
 23 26  1  0  0  0  0
 24 29  1  0  0  0  0
 25 26  1  0  0  0  0
 26 27  1  0  0  0  0
 26 28  1  0  0  0  0
 29 30  1  0  0  0  0
 30 31  2  0  0  0  0
 30 32  1  0  0  0  0
 32 33  2  0  0  0  0
 33 34  1  0  0  0  0
 33 35  1  0  0  0  0
  4 24  1  0  0  0  0
  8 36  1  0  0  0  0
 37 38  1  0  0  0  0
 37 42  2  0  0  0  0
 38 39  2  0  0  0  0
 39 40  1  0  0  0  0
 40 41  2  0  0  0  0
 41 42  1  0  0  0  0
  7 37  1  0  0  0  0
M  END
> <score_KierA3>
0.512259

$$$$
suggested molecule #253
 MOE2019            2D

 42 44  0  0  0  0  0  0  0  0999 V2000
    3.4992   -1.2833    0.0000 C   0  0  0  0  0  0  0  0  0  1  0  0
    4.9992   -1.2762    0.0000 C   0  0  0  0  0  0  0  0  0  2  0  0
    5.7430    0.0263    0.0000 C   0  0  0  0  0  0  0  0  0  3  0  0
    4.9869    1.3218    0.0000 C   0  0  0  0  0  0  0  0  0  4  0  0
    3.4870    1.3147    0.0000 C   0  0  0  0  0  0  0  0  0  5  0  0
    2.7431    0.0122    0.0000 C   0  0  0  0  0  0  0  0  0  6  0  0
    1.2431    0.0051    0.0000 C   0  0  0  0  0  0  0  0  0  7  0  0
    0.4870    1.3006    0.0000 C   0  0  0  0  0  0  0  0  0  8  0  0
    1.2309    2.6032    0.0000 C   0  0  0  0  0  0  0  0  0  9  0  0
    0.4748    3.8987    0.0000 O   0  0  0  0  0  0  0  0  0 10  0  0
    2.7309    2.6102    0.0000 O   0  0  0  0  0  0  0  0  0 11  0  0
    2.9041   -2.3253    0.0000 H   0  0  0  0  0  0  0  0  0  0  0  0
    5.7553   -2.5717    0.0000 O   0  0  0  0  0  0  0  0  0  0  0  0
    7.2430    0.0334    0.0000 O   0  0  0  0  0  0  0  0  0  0  0  0
    7.9991   -1.2621    0.0000 C   0  0  0  0  0  0  0  0  0  0  0  0
    4.9503    9.1159    0.0000 C   0  0  0  0  0  0  0  0  0  0  0  0
    5.7064    7.8204    0.0000 C   0  0  0  0  0  0  0  0  0  0  0  0
    7.2064    7.8275    0.0000 C   0  0  0  0  0  0  0  0  0  0  0  0
    4.9625    6.5179    0.0000 C   0  0  0  0  0  0  0  0  0  0  0  0
    5.7186    5.2224    0.0000 C   0  0  0  0  0  0  0  0  0  0  0  0
    7.2186    5.2295    0.0000 O   0  0  0  0  0  0  0  0  0  0  0  0
    4.9747    3.9198    0.0000 O   0  0  0  0  0  0  0  0  0  0  0  0
    5.7308    2.6244    0.0000 C   0  0  0  0  0  0  0  0  0  0  0  0
    7.2308    2.6314    0.0000 C   0  0  0  0  0  0  0  0  0  0  0  0
    7.9869    1.3359    0.0000 O   0  0  0  0  0  0  0  0  0  0  0  0
    7.9747    3.9340    0.0000 C   0  0  0  0  0  0  0  0  0  0  0  0
    6.6721    4.6778    0.0000 C   0  0  0  0  0  0  0  0  0  0  0  0
    8.7186    5.2365    0.0000 C   0  0  0  0  0  0  0  0  0  0  0  0
    9.2772    3.1901    0.0000 O   0  0  0  0  0  0  0  0  0  0  0  0
   10.5727    3.9462    0.0000 C   0  0  0  0  0  0  0  0  0  0  0  0
   10.5657    5.4462    0.0000 O   0  0  0  0  0  0  0  0  0  0  0  0
   11.8753    3.2023    0.0000 C   0  0  0  0  0  0  0  0  0  0  0  0
   13.1708    3.9584    0.0000 C   0  0  0  0  0  0  0  0  0  0  0  0
   13.1637    5.4584    0.0000 C   0  0  0  0  0  0  0  0  0  0  0  0
   14.4733    3.2145    0.0000 C   0  0  0  0  0  0  0  0  0  0  0  0
   -0.7130    1.2950    0.0000 H   0  0  0  0  0  0  0  0  0  0  0  0
    0.4992   -1.2974    0.0000 C   0  0  0  0  0  0  0  0  0  0  0  0
   -1.0008   -1.3045    0.0000 C   0  0  0  0  0  0  0  0  0  0  0  0
   -1.7447   -2.6070    0.0000 C   0  0  0  0  0  0  0  0  0  0  0  0
   -0.9886   -3.9025    0.0000 C   0  0  0  0  0  0  0  0  0  0  0  0
    0.5114   -3.8955    0.0000 C   0  0  0  0  0  0  0  0  0  0  0  0
    1.2553   -2.5929    0.0000 C   0  0  0  0  0  0  0  0  0  0  0  0
  1  2  1  0  0  0  0
  1  6  2  0  0  0  0
  2  3  2  0  0  0  0
  3  4  1  0  0  0  0
  4  5  2  0  0  0  0
  5  6  1  0  0  0  0
  5 11  1  0  0  0  0
  6  7  1  0  0  0  0
  7  8  2  0  0  0  0
  8  9  1  0  0  0  0
  9 10  2  0  0  0  0
  9 11  1  0  0  0  0
  1 12  1  0  0  0  0
  2 13  1  0  0  0  0
 14 15  1  0  0  0  0
  3 14  1  0  0  0  0
 16 17  1  0  0  0  0
 17 18  1  0  0  0  0
 17 19  1  0  0  0  0
 19 20  1  0  0  0  0
 20 21  2  0  0  0  0
 20 22  1  0  0  0  0
 22 23  1  0  0  0  0
 23 24  1  0  0  0  0
 24 25  1  0  0  0  0
 24 26  1  0  0  0  0
 26 27  1  0  0  0  0
 26 28  1  0  0  0  0
 26 29  1  0  0  0  0
 29 30  1  0  0  0  0
 30 31  2  0  0  0  0
 30 32  1  0  0  0  0
 32 33  1  0  0  0  0
 33 34  1  0  0  0  0
 33 35  1  0  0  0  0
  4 23  1  0  0  0  0
  8 36  1  0  0  0  0
 37 38  1  0  0  0  0
 37 42  2  0  0  0  0
 38 39  2  0  0  0  0
 39 40  1  0  0  0  0
 40 41  2  0  0  0  0
 41 42  1  0  0  0  0
  7 37  1  0  0  0  0
M  END
> <score_KierA3>
0.512256

$$$$
suggested molecule #254
 MOE2019            2D

 28 30  0  0  0  0  0  0  0  0999 V2000
    3.4992   -1.2833    0.0000 C   0  0  0  0  0  0  0  0  0  1  0  0
    4.9992   -1.2762    0.0000 C   0  0  0  0  0  0  0  0  0  2  0  0
    5.7430    0.0263    0.0000 C   0  0  0  0  0  0  0  0  0  3  0  0
    4.9869    1.3218    0.0000 C   0  0  0  0  0  0  0  0  0  4  0  0
    3.4870    1.3147    0.0000 C   0  0  0  0  0  0  0  0  0  5  0  0
    2.7431    0.0122    0.0000 C   0  0  0  0  0  0  0  0  0  6  0  0
    1.2431    0.0051    0.0000 C   0  0  0  0  0  0  0  0  0  7  0  0
    0.4870    1.3006    0.0000 C   0  0  0  0  0  0  0  0  0  8  0  0
    1.2309    2.6032    0.0000 C   0  0  0  0  0  0  0  0  0  9  0  0
    0.4748    3.8987    0.0000 O   0  0  0  0  0  0  0  0  0 10  0  0
    2.7309    2.6102    0.0000 O   0  0  0  0  0  0  0  0  0 11  0  0
    2.9041   -2.3253    0.0000 H   0  0  0  0  0  0  0  0  0  0  0  0
    5.7553   -2.5717    0.0000 O   0  0  0  0  0  0  0  0  0  0  0  0
    7.2430    0.0334    0.0000 O   0  0  0  0  0  0  0  0  0  0  0  0
    7.9991   -1.2621    0.0000 C   0  0  0  0  0  0  0  0  0  0  0  0
    5.7308    2.6244    0.0000 C   0  0  0  0  0  0  0  0  0  0  0  0
    7.2308    2.6314    0.0000 C   0  0  0  0  0  0  0  0  0  0  0  0
    7.9747    3.9340    0.0000 C   0  0  0  0  0  0  0  0  0  0  0  0
    9.2772    3.1901    0.0000 O   0  0  0  0  0  0  0  0  0  0  0  0
    6.6721    4.6778    0.0000 C   0  0  0  0  0  0  0  0  0  0  0  0
    8.7186    5.2365    0.0000 C   0  0  0  0  0  0  0  0  0  0  0  0
   -0.7130    1.2950    0.0000 H   0  0  0  0  0  0  0  0  0  0  0  0
    0.4992   -1.2974    0.0000 C   0  0  0  0  0  0  0  0  0  0  0  0
   -1.0008   -1.3045    0.0000 C   0  0  0  0  0  0  0  0  0  0  0  0
   -1.7447   -2.6070    0.0000 C   0  0  0  0  0  0  0  0  0  0  0  0
   -0.9886   -3.9025    0.0000 C   0  0  0  0  0  0  0  0  0  0  0  0
    0.5114   -3.8955    0.0000 C   0  0  0  0  0  0  0  0  0  0  0  0
    1.2553   -2.5929    0.0000 C   0  0  0  0  0  0  0  0  0  0  0  0
  1  2  1  0  0  0  0
  1  6  2  0  0  0  0
  2  3  2  0  0  0  0
  3  4  1  0  0  0  0
  4  5  2  0  0  0  0
  5  6  1  0  0  0  0
  5 11  1  0  0  0  0
  6  7  1  0  0  0  0
  7  8  2  0  0  0  0
  8  9  1  0  0  0  0
  9 10  2  0  0  0  0
  9 11  1  0  0  0  0
  1 12  1  0  0  0  0
  2 13  1  0  0  0  0
 14 15  1  0  0  0  0
  3 14  1  0  0  0  0
 16 17  2  0  0  0  0
 17 18  1  0  0  0  0
 18 19  1  0  0  0  0
 18 20  1  0  0  0  0
 18 21  1  0  0  0  0
  4 16  1  0  0  0  0
  8 22  1  0  0  0  0
 23 24  1  0  0  0  0
 23 28  2  0  0  0  0
 24 25  2  0  0  0  0
 25 26  1  0  0  0  0
 26 27  2  0  0  0  0
 27 28  1  0  0  0  0
  7 23  1  0  0  0  0
M  END
> <score_KierA3>
0.51229

$$$$
suggested molecule #255
 MOE2019            2D

 27 30  0  0  0  0  0  0  0  0999 V2000
    2.6624   -1.5546    0.0000 C   0  0  0  0  0  0  0  0  0  1  0  0
    3.9615   -2.3046    0.0000 C   0  0  0  0  0  0  0  0  0  2  0  0
    5.2605   -1.5546    0.0000 C   0  0  0  0  0  0  0  0  0  3  0  0
    5.2605   -0.0546    0.0000 C   0  0  0  0  0  0  0  0  0  4  0  0
    3.9615    0.6954    0.0000 C   0  0  0  0  0  0  0  0  0  5  0  0
    2.6624   -0.0546    0.0000 C   0  0  0  0  0  0  0  0  0  6  0  0
    1.3634    0.6954    0.0000 C   0  0  0  0  0  0  0  0  0  7  0  0
    0.0644   -0.0546    0.0000 O   0  0  0  0  0  0  0  0  0  8  0  0
    1.3634    2.1954    0.0000 C   0  0  0  0  0  0  0  0  0  9  0  0
    2.6624    2.9454    0.0000 C   0  0  0  0  0  0  0  0  0 10  0  0
    3.9615    2.1954    0.0000 O   0  0  0  0  0  0  0  0  0 11  0  0
    1.6232   -2.1546    0.0000 H   0  0  0  0  0  0  0  0  0  0  0  0
    3.9615   -6.8046    0.0000 C   0  0  0  0  0  0  0  0  0  0  0  0
    5.2605   -6.0546    0.0000 C   0  0  0  0  0  0  0  0  0  0  0  0
    6.5595   -6.8046    0.0000 C   0  0  0  0  0  0  0  0  0  0  0  0
    5.2605   -4.5546    0.0000 C   0  0  0  0  0  0  0  0  0  0  0  0
    6.5595   -3.8046    0.0000 C   0  0  0  0  0  0  0  0  0  0  0  0
    6.5595   -2.3046    0.0000 O   0  0  0  0  0  0  0  0  0  0  0  0
    3.9615   -3.8046    0.0000 O   0  0  0  0  0  0  0  0  0  0  0  0
    6.5595    0.6954    0.0000 O   0  0  0  0  0  0  0  0  0  0  0  0
    0.3242    2.7954    0.0000 H   0  0  0  0  0  0  0  0  0  0  0  0
    2.6624    4.4454    0.0000 C   0  0  0  0  0  0  0  0  0  0  0  0
    3.9615    5.1954    0.0000 C   0  0  0  0  0  0  0  0  0  0  0  0
    3.9615    6.6954    0.0000 C   0  0  0  0  0  0  0  0  0  0  0  0
    2.6624    7.4454    0.0000 C   0  0  0  0  0  0  0  0  0  0  0  0
    1.3634    6.6954    0.0000 C   0  0  0  0  0  0  0  0  0  0  0  0
    1.3634    5.1954    0.0000 C   0  0  0  0  0  0  0  0  0  0  0  0
  1  2  1  0  0  0  0
  1  6  2  0  0  0  0
  2  3  2  0  0  0  0
  3  4  1  0  0  0  0
  4  5  2  0  0  0  0
  5  6  1  0  0  0  0
  5 11  1  0  0  0  0
  6  7  1  0  0  0  0
  7  8  2  0  0  0  0
  7  9  1  0  0  0  0
  9 10  2  0  0  0  0
 10 11  1  0  0  0  0
  1 12  1  0  0  0  0
 13 14  1  0  0  0  0
 14 15  2  0  0  0  0
 14 16  1  0  0  0  0
 16 17  1  0  0  0  0
 16 19  1  0  0  0  0
 17 18  1  0  0  0  0
  3 18  1  0  0  0  0
  2 19  1  0  0  0  0
  4 20  1  0  0  0  0
  9 21  1  0  0  0  0
 22 23  1  0  0  0  0
 22 27  2  0  0  0  0
 23 24  2  0  0  0  0
 24 25  1  0  0  0  0
 25 26  2  0  0  0  0
 26 27  1  0  0  0  0
 10 22  1  0  0  0  0
M  END
> <score_KierA3>
0.50001

$$$$
suggested molecule #256
 MOE2019            2D

 40 43  0  0  1  0  0  0  0  0999 V2000
    2.6624   -1.5546    0.0000 C   0  0  0  0  0  0  0  0  0  1  0  0
    3.9615   -2.3046    0.0000 C   0  0  0  0  0  0  0  0  0  2  0  0
    5.2605   -1.5546    0.0000 C   0  0  0  0  0  0  0  0  0  3  0  0
    5.2605   -0.0546    0.0000 C   0  0  0  0  0  0  0  0  0  4  0  0
    3.9615    0.6954    0.0000 C   0  0  0  0  0  0  0  0  0  5  0  0
    2.6624   -0.0546    0.0000 C   0  0  0  0  0  0  0  0  0  6  0  0
    1.3634    0.6954    0.0000 C   0  0  0  0  0  0  0  0  0  7  0  0
    0.0644   -0.0546    0.0000 O   0  0  0  0  0  0  0  0  0  8  0  0
    1.3634    2.1954    0.0000 C   0  0  0  0  0  0  0  0  0  9  0  0
    2.6624    2.9454    0.0000 C   0  0  0  0  0  0  0  0  0 10  0  0
    3.9615    2.1954    0.0000 O   0  0  0  0  0  0  0  0  0 11  0  0
    1.6232   -2.1546    0.0000 H   0  0  0  0  0  0  0  0  0  0  0  0
    3.9615   -3.8046    0.0000 O   0  0  0  0  0  0  0  0  0  0  0  0
    6.2997   -2.1546    0.0000 H   0  0  0  0  0  0  0  0  0  0  0  0
   10.4567    1.4454    0.0000 C   0  0  0  0  0  0  0  0  0  0  0  0
    9.1576    0.6954    0.0000 C   0  0  0  0  0  0  0  0  0  0  0  0
    7.8586   -0.0546    0.0000 C   0  0  1  0  0  0  0  0  0  0  0  0
    6.5595    0.6954    0.0000 C   0  0  0  0  0  0  0  0  0  0  0  0
    9.9076   -0.6036    0.0000 O   0  0  0  0  0  0  0  0  0  0  0  0
    6.5595    2.1954    0.0000 O   0  0  0  0  0  0  0  0  0  0  0  0
    7.8586   -1.5546    0.0000 O   0  0  0  0  0  0  0  0  0  0  0  0
    9.1576   -2.3046    0.0000 C   0  0  1  0  0  0  0  0  0  0  0  0
    9.1576   -3.8046    0.0000 C   0  0  1  0  0  0  0  0  0  0  0  0
   10.4567   -4.5546    0.0000 C   0  0  2  0  0  0  0  0  0  0  0  0
   11.7557   -3.8046    0.0000 C   0  0  1  0  0  0  0  0  0  0  0  0
   11.7557   -2.3046    0.0000 C   0  0  2  0  0  0  0  0  0  0  0  0
   10.4567   -1.5546    0.0000 O   0  0  0  0  0  0  0  0  0  0  0  0
   13.0547   -1.5546    0.0000 C   0  0  0  0  0  0  0  0  0  0  0  0
   14.3538   -2.3046    0.0000 O   0  0  0  0  0  0  0  0  0  0  0  0
   13.0547   -4.5546    0.0000 O   0  0  0  0  0  0  0  0  0  0  0  0
   10.4567   -6.0546    0.0000 O   0  0  0  0  0  0  0  0  0  0  0  0
    7.8586   -4.5546    0.0000 O   0  0  0  0  0  0  0  0  0  0  0  0
    8.4076    1.9944    0.0000 C   0  0  0  0  0  0  0  0  0  0  0  0
    0.3242    2.7954    0.0000 H   0  0  0  0  0  0  0  0  0  0  0  0
    2.6624    4.4454    0.0000 C   0  0  0  0  0  0  0  0  0  0  0  0
    3.9615    5.1954    0.0000 C   0  0  0  0  0  0  0  0  0  0  0  0
    3.9615    6.6954    0.0000 C   0  0  0  0  0  0  0  0  0  0  0  0
    2.6624    7.4454    0.0000 C   0  0  0  0  0  0  0  0  0  0  0  0
    1.3634    6.6954    0.0000 C   0  0  0  0  0  0  0  0  0  0  0  0
    1.3634    5.1954    0.0000 C   0  0  0  0  0  0  0  0  0  0  0  0
  1  2  2  0  0  0  0
  1  6  1  0  0  0  0
  2  3  1  0  0  0  0
  3  4  2  0  0  0  0
  4  5  1  0  0  0  0
  5  6  2  0  0  0  0
  5 11  1  0  0  0  0
  6  7  1  0  0  0  0
  7  8  2  0  0  0  0
  7  9  1  0  0  0  0
  9 10  2  0  0  0  0
 10 11  1  0  0  0  0
  1 12  1  0  0  0  0
  2 13  1  0  0  0  0
  3 14  1  0  0  0  0
 15 16  1  0  0  0  0
 16 17  1  0  0  0  0
 16 19  1  0  0  0  0
 16 33  1  0  0  0  0
 17 18  1  0  0  0  0
 17 21  1  6  0  0  0
 18 20  1  0  0  0  0
 22 21  1  1  0  0  0
 22 23  1  0  0  0  0
 22 27  1  0  0  0  0
 23 24  1  0  0  0  0
 23 32  1  6  0  0  0
 24 25  1  0  0  0  0
 24 31  1  1  0  0  0
 25 26  1  0  0  0  0
 25 30  1  6  0  0  0
 26 27  1  0  0  0  0
 26 28  1  1  0  0  0
 28 29  1  0  0  0  0
  4 18  1  0  0  0  0
  9 34  1  0  0  0  0
 35 36  1  0  0  0  0
 35 40  2  0  0  0  0
 36 37  2  0  0  0  0
 37 38  1  0  0  0  0
 38 39  2  0  0  0  0
 39 40  1  0  0  0  0
 10 35  1  0  0  0  0
M  END
> <score_KierA3>
0.500291

$$$$
suggested molecule #257
 MOE2019            2D

 40 43  0  0  1  0  0  0  0  0999 V2000
    2.6624   -1.5546    0.0000 C   0  0  0  0  0  0  0  0  0  1  0  0
    3.9615   -2.3046    0.0000 C   0  0  0  0  0  0  0  0  0  2  0  0
    5.2605   -1.5546    0.0000 C   0  0  0  0  0  0  0  0  0  3  0  0
    5.2605   -0.0546    0.0000 C   0  0  0  0  0  0  0  0  0  4  0  0
    3.9615    0.6954    0.0000 C   0  0  0  0  0  0  0  0  0  5  0  0
    2.6624   -0.0546    0.0000 C   0  0  0  0  0  0  0  0  0  6  0  0
    1.3634    0.6954    0.0000 C   0  0  0  0  0  0  0  0  0  7  0  0
    0.0644   -0.0546    0.0000 O   0  0  0  0  0  0  0  0  0  8  0  0
    1.3634    2.1954    0.0000 C   0  0  0  0  0  0  0  0  0  9  0  0
    2.6624    2.9454    0.0000 C   0  0  0  0  0  0  0  0  0 10  0  0
    3.9615    2.1954    0.0000 O   0  0  0  0  0  0  0  0  0 11  0  0
    1.6232   -2.1546    0.0000 H   0  0  0  0  0  0  0  0  0  0  0  0
    3.9615   -3.8046    0.0000 O   0  0  0  0  0  0  0  0  0  0  0  0
    6.2997   -2.1546    0.0000 H   0  0  0  0  0  0  0  0  0  0  0  0
   10.4567    1.4454    0.0000 C   0  0  0  0  0  0  0  0  0  0  0  0
    9.1576    0.6954    0.0000 C   0  0  0  0  0  0  0  0  0  0  0  0
    7.8586   -0.0546    0.0000 C   0  0  1  0  0  0  0  0  0  0  0  0
    6.5595    0.6954    0.0000 C   0  0  0  0  0  0  0  0  0  0  0  0
    9.9076   -0.6036    0.0000 O   0  0  0  0  0  0  0  0  0  0  0  0
    6.5595    2.1954    0.0000 O   0  0  0  0  0  0  0  0  0  0  0  0
    7.8586   -1.5546    0.0000 O   0  0  0  0  0  0  0  0  0  0  0  0
    9.1576   -2.3046    0.0000 C   0  0  1  0  0  0  0  0  0  0  0  0
    9.1576   -3.8046    0.0000 C   0  0  1  0  0  0  0  0  0  0  0  0
   10.4567   -4.5546    0.0000 C   0  0  2  0  0  0  0  0  0  0  0  0
   11.7557   -3.8046    0.0000 C   0  0  1  0  0  0  0  0  0  0  0  0
   11.7557   -2.3046    0.0000 C   0  0  2  0  0  0  0  0  0  0  0  0
   10.4567   -1.5546    0.0000 O   0  0  0  0  0  0  0  0  0  0  0  0
   13.0547   -1.5546    0.0000 C   0  0  0  0  0  0  0  0  0  0  0  0
   14.3538   -2.3046    0.0000 O   0  0  0  0  0  0  0  0  0  0  0  0
   13.0547   -4.5546    0.0000 O   0  0  0  0  0  0  0  0  0  0  0  0
   10.4567   -6.0546    0.0000 O   0  0  0  0  0  0  0  0  0  0  0  0
    7.8586   -4.5546    0.0000 O   0  0  0  0  0  0  0  0  0  0  0  0
    8.4076    1.9944    0.0000 C   0  0  0  0  0  0  0  0  0  0  0  0
    0.3242    2.7954    0.0000 H   0  0  0  0  0  0  0  0  0  0  0  0
    2.6624    4.4454    0.0000 C   0  0  0  0  0  0  0  0  0  0  0  0
    3.9615    5.1954    0.0000 C   0  0  0  0  0  0  0  0  0  0  0  0
    3.9615    6.6954    0.0000 C   0  0  0  0  0  0  0  0  0  0  0  0
    2.6624    7.4454    0.0000 C   0  0  0  0  0  0  0  0  0  0  0  0
    1.3634    6.6954    0.0000 C   0  0  0  0  0  0  0  0  0  0  0  0
    1.3634    5.1954    0.0000 C   0  0  0  0  0  0  0  0  0  0  0  0
  1  2  2  0  0  0  0
  1  6  1  0  0  0  0
  2  3  1  0  0  0  0
  3  4  2  0  0  0  0
  4  5  1  0  0  0  0
  5  6  2  0  0  0  0
  5 11  1  0  0  0  0
  6  7  1  0  0  0  0
  7  8  2  0  0  0  0
  7  9  1  0  0  0  0
  9 10  2  0  0  0  0
 10 11  1  0  0  0  0
  1 12  1  0  0  0  0
  2 13  1  0  0  0  0
  3 14  1  0  0  0  0
 15 16  1  0  0  0  0
 16 17  1  0  0  0  0
 16 19  1  0  0  0  0
 16 33  1  0  0  0  0
 17 18  1  0  0  0  0
 17 21  1  6  0  0  0
 18 20  1  0  0  0  0
 22 21  1  1  0  0  0
 22 23  1  0  0  0  0
 22 27  1  0  0  0  0
 23 24  1  0  0  0  0
 23 32  1  6  0  0  0
 24 25  1  0  0  0  0
 24 31  1  1  0  0  0
 25 26  1  0  0  0  0
 25 30  1  6  0  0  0
 26 27  1  0  0  0  0
 26 28  1  1  0  0  0
 28 29  1  0  0  0  0
  4 18  1  0  0  0  0
  9 34  1  0  0  0  0
 35 36  1  0  0  0  0
 35 40  2  0  0  0  0
 36 37  2  0  0  0  0
 37 38  1  0  0  0  0
 38 39  2  0  0  0  0
 39 40  1  0  0  0  0
 10 35  1  0  0  0  0
M  END
> <score_KierFlex>
0.500041

$$$$
suggested molecule #258
 MOE2019            2D

 39 42  0  0  1  0  0  0  0  0999 V2000
    2.6624   -1.5546    0.0000 C   0  0  0  0  0  0  0  0  0  1  0  0
    3.9615   -2.3046    0.0000 C   0  0  0  0  0  0  0  0  0  2  0  0
    5.2605   -1.5546    0.0000 C   0  0  0  0  0  0  0  0  0  3  0  0
    5.2605   -0.0546    0.0000 C   0  0  0  0  0  0  0  0  0  4  0  0
    3.9615    0.6954    0.0000 C   0  0  0  0  0  0  0  0  0  5  0  0
    2.6624   -0.0546    0.0000 C   0  0  0  0  0  0  0  0  0  6  0  0
    1.3634    0.6954    0.0000 C   0  0  0  0  0  0  0  0  0  7  0  0
    0.0644   -0.0546    0.0000 O   0  0  0  0  0  0  0  0  0  8  0  0
    1.3634    2.1954    0.0000 C   0  0  0  0  0  0  0  0  0  9  0  0
    2.6624    2.9454    0.0000 C   0  0  0  0  0  0  0  0  0 10  0  0
    3.9615    2.1954    0.0000 O   0  0  0  0  0  0  0  0  0 11  0  0
    1.6232   -2.1546    0.0000 H   0  0  0  0  0  0  0  0  0  0  0  0
    3.9615   -3.8046    0.0000 O   0  0  0  0  0  0  0  0  0  0  0  0
    6.2997   -2.1546    0.0000 H   0  0  0  0  0  0  0  0  0  0  0  0
    8.4076    1.9944    0.0000 C   0  0  0  0  0  0  0  0  0  0  0  0
    9.1576    0.6954    0.0000 C   0  0  0  0  0  0  0  0  0  0  0  0
    9.9076   -0.6036    0.0000 C   0  0  0  0  0  0  0  0  0  0  0  0
    7.8586   -0.0546    0.0000 C   0  0  0  0  0  0  0  0  0  0  0  0
    6.5595    0.6954    0.0000 C   0  0  0  0  0  0  0  0  0  0  0  0
    7.8586   -1.5546    0.0000 O   0  0  0  0  0  0  0  0  0  0  0  0
   10.4567    1.4454    0.0000 O   0  0  0  0  0  0  0  0  0  0  0  0
   11.7557    0.6954    0.0000 C   0  0  1  0  0  0  0  0  0  0  0  0
   13.0547    1.4454    0.0000 C   0  0  1  0  0  0  0  0  0  0  0  0
   14.3538    0.6954    0.0000 C   0  0  2  0  0  0  0  0  0  0  0  0
   14.3538   -0.8046    0.0000 C   0  0  1  0  0  0  0  0  0  0  0  0
   13.0547   -1.5546    0.0000 C   0  0  2  0  0  0  0  0  0  0  0  0
   11.7557   -0.8046    0.0000 O   0  0  0  0  0  0  0  0  0  0  0  0
   13.0547   -3.0546    0.0000 C   0  0  0  0  0  0  0  0  0  0  0  0
   14.3538   -3.8046    0.0000 O   0  0  0  0  0  0  0  0  0  0  0  0
   15.6528   -1.5546    0.0000 O   0  0  0  0  0  0  0  0  0  0  0  0
   15.6528    1.4454    0.0000 O   0  0  0  0  0  0  0  0  0  0  0  0
   13.0547    2.9454    0.0000 O   0  0  0  0  0  0  0  0  0  0  0  0
    0.3242    2.7954    0.0000 H   0  0  0  0  0  0  0  0  0  0  0  0
    2.6624    4.4454    0.0000 C   0  0  0  0  0  0  0  0  0  0  0  0
    3.9615    5.1954    0.0000 C   0  0  0  0  0  0  0  0  0  0  0  0
    3.9615    6.6954    0.0000 C   0  0  0  0  0  0  0  0  0  0  0  0
    2.6624    7.4454    0.0000 C   0  0  0  0  0  0  0  0  0  0  0  0
    1.3634    6.6954    0.0000 C   0  0  0  0  0  0  0  0  0  0  0  0
    1.3634    5.1954    0.0000 C   0  0  0  0  0  0  0  0  0  0  0  0
  1  2  2  0  0  0  0
  1  6  1  0  0  0  0
  2  3  1  0  0  0  0
  3  4  2  0  0  0  0
  4  5  1  0  0  0  0
  5  6  2  0  0  0  0
  5 11  1  0  0  0  0
  6  7  1  0  0  0  0
  7  8  2  0  0  0  0
  7  9  1  0  0  0  0
  9 10  2  0  0  0  0
 10 11  1  0  0  0  0
  1 12  1  0  0  0  0
  2 13  1  0  0  0  0
  3 14  1  0  0  0  0
 15 16  1  0  0  0  0
 16 17  1  0  0  0  0
 16 18  1  0  0  0  0
 16 21  1  0  0  0  0
 18 19  1  0  0  0  0
 18 20  1  0  0  0  0
 22 21  1  1  0  0  0
 22 23  1  0  0  0  0
 22 27  1  0  0  0  0
 23 24  1  0  0  0  0
 23 32  1  6  0  0  0
 24 25  1  0  0  0  0
 24 31  1  1  0  0  0
 25 26  1  0  0  0  0
 25 30  1  6  0  0  0
 26 27  1  0  0  0  0
 26 28  1  1  0  0  0
 28 29  1  0  0  0  0
  4 19  1  0  0  0  0
  9 33  1  0  0  0  0
 34 35  1  0  0  0  0
 34 39  2  0  0  0  0
 35 36  2  0  0  0  0
 36 37  1  0  0  0  0
 37 38  2  0  0  0  0
 38 39  1  0  0  0  0
 10 34  1  0  0  0  0
M  END
> <score_KierA3>
0.500291

$$$$
suggested molecule #259
 MOE2019            2D

 39 42  0  0  1  0  0  0  0  0999 V2000
    2.6624   -1.5546    0.0000 C   0  0  0  0  0  0  0  0  0  1  0  0
    3.9615   -2.3046    0.0000 C   0  0  0  0  0  0  0  0  0  2  0  0
    5.2605   -1.5546    0.0000 C   0  0  0  0  0  0  0  0  0  3  0  0
    5.2605   -0.0546    0.0000 C   0  0  0  0  0  0  0  0  0  4  0  0
    3.9615    0.6954    0.0000 C   0  0  0  0  0  0  0  0  0  5  0  0
    2.6624   -0.0546    0.0000 C   0  0  0  0  0  0  0  0  0  6  0  0
    1.3634    0.6954    0.0000 C   0  0  0  0  0  0  0  0  0  7  0  0
    0.0644   -0.0546    0.0000 O   0  0  0  0  0  0  0  0  0  8  0  0
    1.3634    2.1954    0.0000 C   0  0  0  0  0  0  0  0  0  9  0  0
    2.6624    2.9454    0.0000 C   0  0  0  0  0  0  0  0  0 10  0  0
    3.9615    2.1954    0.0000 O   0  0  0  0  0  0  0  0  0 11  0  0
    1.6232   -2.1546    0.0000 H   0  0  0  0  0  0  0  0  0  0  0  0
    3.9615   -3.8046    0.0000 O   0  0  0  0  0  0  0  0  0  0  0  0
    6.2997   -2.1546    0.0000 H   0  0  0  0  0  0  0  0  0  0  0  0
    8.4076    1.9944    0.0000 C   0  0  0  0  0  0  0  0  0  0  0  0
    9.1576    0.6954    0.0000 C   0  0  0  0  0  0  0  0  0  0  0  0
    9.9076   -0.6036    0.0000 C   0  0  0  0  0  0  0  0  0  0  0  0
    7.8586   -0.0546    0.0000 C   0  0  0  0  0  0  0  0  0  0  0  0
    6.5595    0.6954    0.0000 C   0  0  0  0  0  0  0  0  0  0  0  0
    7.8586   -1.5546    0.0000 O   0  0  0  0  0  0  0  0  0  0  0  0
   10.4567    1.4454    0.0000 O   0  0  0  0  0  0  0  0  0  0  0  0
   11.7557    0.6954    0.0000 C   0  0  1  0  0  0  0  0  0  0  0  0
   13.0547    1.4454    0.0000 C   0  0  1  0  0  0  0  0  0  0  0  0
   14.3538    0.6954    0.0000 C   0  0  2  0  0  0  0  0  0  0  0  0
   14.3538   -0.8046    0.0000 C   0  0  1  0  0  0  0  0  0  0  0  0
   13.0547   -1.5546    0.0000 C   0  0  2  0  0  0  0  0  0  0  0  0
   11.7557   -0.8046    0.0000 O   0  0  0  0  0  0  0  0  0  0  0  0
   13.0547   -3.0546    0.0000 C   0  0  0  0  0  0  0  0  0  0  0  0
   14.3538   -3.8046    0.0000 O   0  0  0  0  0  0  0  0  0  0  0  0
   15.6528   -1.5546    0.0000 O   0  0  0  0  0  0  0  0  0  0  0  0
   15.6528    1.4454    0.0000 O   0  0  0  0  0  0  0  0  0  0  0  0
   13.0547    2.9454    0.0000 O   0  0  0  0  0  0  0  0  0  0  0  0
    0.3242    2.7954    0.0000 H   0  0  0  0  0  0  0  0  0  0  0  0
    2.6624    4.4454    0.0000 C   0  0  0  0  0  0  0  0  0  0  0  0
    3.9615    5.1954    0.0000 C   0  0  0  0  0  0  0  0  0  0  0  0
    3.9615    6.6954    0.0000 C   0  0  0  0  0  0  0  0  0  0  0  0
    2.6624    7.4454    0.0000 C   0  0  0  0  0  0  0  0  0  0  0  0
    1.3634    6.6954    0.0000 C   0  0  0  0  0  0  0  0  0  0  0  0
    1.3634    5.1954    0.0000 C   0  0  0  0  0  0  0  0  0  0  0  0
  1  2  2  0  0  0  0
  1  6  1  0  0  0  0
  2  3  1  0  0  0  0
  3  4  2  0  0  0  0
  4  5  1  0  0  0  0
  5  6  2  0  0  0  0
  5 11  1  0  0  0  0
  6  7  1  0  0  0  0
  7  8  2  0  0  0  0
  7  9  1  0  0  0  0
  9 10  2  0  0  0  0
 10 11  1  0  0  0  0
  1 12  1  0  0  0  0
  2 13  1  0  0  0  0
  3 14  1  0  0  0  0
 15 16  1  0  0  0  0
 16 17  1  0  0  0  0
 16 18  1  0  0  0  0
 16 21  1  0  0  0  0
 18 19  1  0  0  0  0
 18 20  1  0  0  0  0
 22 21  1  1  0  0  0
 22 23  1  0  0  0  0
 22 27  1  0  0  0  0
 23 24  1  0  0  0  0
 23 32  1  6  0  0  0
 24 25  1  0  0  0  0
 24 31  1  1  0  0  0
 25 26  1  0  0  0  0
 25 30  1  6  0  0  0
 26 27  1  0  0  0  0
 26 28  1  1  0  0  0
 28 29  1  0  0  0  0
  4 19  1  0  0  0  0
  9 33  1  0  0  0  0
 34 35  1  0  0  0  0
 34 39  2  0  0  0  0
 35 36  2  0  0  0  0
 36 37  1  0  0  0  0
 37 38  2  0  0  0  0
 38 39  1  0  0  0  0
 10 34  1  0  0  0  0
M  END
> <score_KierFlex>
0.500043

$$$$
suggested molecule #260
 MOE2019            2D

 27 30  0  0  0  0  0  0  0  0999 V2000
    2.6624   -1.5546    0.0000 C   0  0  0  0  0  0  0  0  0  1  0  0
    3.9615   -2.3046    0.0000 C   0  0  0  0  0  0  0  0  0  2  0  0
    5.2605   -1.5546    0.0000 C   0  0  0  0  0  0  0  0  0  3  0  0
    5.2605   -0.0546    0.0000 C   0  0  0  0  0  0  0  0  0  4  0  0
    3.9615    0.6954    0.0000 C   0  0  0  0  0  0  0  0  0  5  0  0
    2.6624   -0.0546    0.0000 C   0  0  0  0  0  0  0  0  0  6  0  0
    1.3634    0.6954    0.0000 C   0  0  0  0  0  0  0  0  0  7  0  0
    0.0644   -0.0546    0.0000 O   0  0  0  0  0  0  0  0  0  8  0  0
    1.3634    2.1954    0.0000 C   0  0  0  0  0  0  0  0  0  9  0  0
    2.6624    2.9454    0.0000 C   0  0  0  0  0  0  0  0  0 10  0  0
    3.9615    2.1954    0.0000 O   0  0  0  0  0  0  0  0  0 11  0  0
    1.6232   -2.1546    0.0000 H   0  0  0  0  0  0  0  0  0  0  0  0
    3.9615   -3.8046    0.0000 O   0  0  0  0  0  0  0  0  0  0  0  0
    6.2997   -2.1546    0.0000 H   0  0  0  0  0  0  0  0  0  0  0  0
    9.3586   -1.5546    0.0000 C   0  0  0  0  0  0  0  0  0  0  0  0
    9.3586   -0.0546    0.0000 C   0  0  0  0  0  0  0  0  0  0  0  0
   10.6576    0.6954    0.0000 C   0  0  0  0  0  0  0  0  0  0  0  0
    8.0595    0.6954    0.0000 C   0  0  0  0  0  0  0  0  0  0  0  0
    6.5595    0.6954    0.0000 C   0  0  0  0  0  0  0  0  0  0  0  0
    7.3095    1.9944    0.0000 O   0  0  0  0  0  0  0  0  0  0  0  0
    0.3242    2.7954    0.0000 H   0  0  0  0  0  0  0  0  0  0  0  0
    2.6624    4.4454    0.0000 C   0  0  0  0  0  0  0  0  0  0  0  0
    1.3634    5.1954    0.0000 C   0  0  0  0  0  0  0  0  0  0  0  0
    1.3634    6.6954    0.0000 C   0  0  0  0  0  0  0  0  0  0  0  0
    2.6624    7.4454    0.0000 C   0  0  0  0  0  0  0  0  0  0  0  0
    3.9615    6.6954    0.0000 C   0  0  0  0  0  0  0  0  0  0  0  0
    3.9615    5.1954    0.0000 C   0  0  0  0  0  0  0  0  0  0  0  0
  1  2  1  0  0  0  0
  1  6  2  0  0  0  0
  2  3  2  0  0  0  0
  3  4  1  0  0  0  0
  4  5  2  0  0  0  0
  5  6  1  0  0  0  0
  5 11  1  0  0  0  0
  6  7  1  0  0  0  0
  7  8  2  0  0  0  0
  7  9  1  0  0  0  0
  9 10  2  0  0  0  0
 10 11  1  0  0  0  0
  1 12  1  0  0  0  0
  2 13  1  0  0  0  0
  3 14  1  0  0  0  0
 15 16  1  0  0  0  0
 16 17  2  0  0  0  0
 16 18  1  0  0  0  0
 18 19  1  0  0  0  0
 18 20  1  0  0  0  0
 19 20  1  0  0  0  0
  4 19  1  0  0  0  0
  9 21  1  0  0  0  0
 22 23  1  0  0  0  0
 22 27  2  0  0  0  0
 23 24  2  0  0  0  0
 24 25  1  0  0  0  0
 25 26  2  0  0  0  0
 26 27  1  0  0  0  0
 10 22  1  0  0  0  0
M  END
> <score_KierA3>
0.500321

$$$$
suggested molecule #261
 MOE2019            2D

 27 30  0  0  0  0  0  0  0  0999 V2000
    2.6624   -1.5546    0.0000 C   0  0  0  0  0  0  0  0  0  1  0  0
    3.9615   -2.3046    0.0000 C   0  0  0  0  0  0  0  0  0  2  0  0
    5.2605   -1.5546    0.0000 C   0  0  0  0  0  0  0  0  0  3  0  0
    5.2605   -0.0546    0.0000 C   0  0  0  0  0  0  0  0  0  4  0  0
    3.9615    0.6954    0.0000 C   0  0  0  0  0  0  0  0  0  5  0  0
    2.6624   -0.0546    0.0000 C   0  0  0  0  0  0  0  0  0  6  0  0
    1.3634    0.6954    0.0000 C   0  0  0  0  0  0  0  0  0  7  0  0
    0.0644   -0.0546    0.0000 O   0  0  0  0  0  0  0  0  0  8  0  0
    1.3634    2.1954    0.0000 C   0  0  0  0  0  0  0  0  0  9  0  0
    2.6624    2.9454    0.0000 C   0  0  0  0  0  0  0  0  0 10  0  0
    3.9615    2.1954    0.0000 O   0  0  0  0  0  0  0  0  0 11  0  0
    1.6232   -2.1546    0.0000 H   0  0  0  0  0  0  0  0  0  0  0  0
    3.9615   -3.8046    0.0000 O   0  0  0  0  0  0  0  0  0  0  0  0
    6.2997   -2.1546    0.0000 H   0  0  0  0  0  0  0  0  0  0  0  0
    9.3586   -1.5546    0.0000 C   0  0  0  0  0  0  0  0  0  0  0  0
    9.3586   -0.0546    0.0000 C   0  0  0  0  0  0  0  0  0  0  0  0
   10.6576    0.6954    0.0000 C   0  0  0  0  0  0  0  0  0  0  0  0
    8.0595    0.6954    0.0000 C   0  0  0  0  0  0  0  0  0  0  0  0
    6.5595    0.6954    0.0000 C   0  0  0  0  0  0  0  0  0  0  0  0
    7.3095    1.9944    0.0000 O   0  0  0  0  0  0  0  0  0  0  0  0
    0.3242    2.7954    0.0000 H   0  0  0  0  0  0  0  0  0  0  0  0
    2.6624    4.4454    0.0000 C   0  0  0  0  0  0  0  0  0  0  0  0
    1.3634    5.1954    0.0000 C   0  0  0  0  0  0  0  0  0  0  0  0
    1.3634    6.6954    0.0000 C   0  0  0  0  0  0  0  0  0  0  0  0
    2.6624    7.4454    0.0000 C   0  0  0  0  0  0  0  0  0  0  0  0
    3.9615    6.6954    0.0000 C   0  0  0  0  0  0  0  0  0  0  0  0
    3.9615    5.1954    0.0000 C   0  0  0  0  0  0  0  0  0  0  0  0
  1  2  1  0  0  0  0
  1  6  2  0  0  0  0
  2  3  2  0  0  0  0
  3  4  1  0  0  0  0
  4  5  2  0  0  0  0
  5  6  1  0  0  0  0
  5 11  1  0  0  0  0
  6  7  1  0  0  0  0
  7  8  2  0  0  0  0
  7  9  1  0  0  0  0
  9 10  2  0  0  0  0
 10 11  1  0  0  0  0
  1 12  1  0  0  0  0
  2 13  1  0  0  0  0
  3 14  1  0  0  0  0
 15 16  1  0  0  0  0
 16 17  2  0  0  0  0
 16 18  1  0  0  0  0
 18 19  1  0  0  0  0
 18 20  1  0  0  0  0
 19 20  1  0  0  0  0
  4 19  1  0  0  0  0
  9 21  1  0  0  0  0
 22 23  1  0  0  0  0
 22 27  2  0  0  0  0
 23 24  2  0  0  0  0
 24 25  1  0  0  0  0
 25 26  2  0  0  0  0
 26 27  1  0  0  0  0
 10 22  1  0  0  0  0
M  END
> <score_KierFlex>
0.500074

$$$$
suggested molecule #262
 MOE2019            2D

 28 31  0  0  0  0  0  0  0  0999 V2000
    2.6624   -1.5546    0.0000 C   0  0  0  0  0  0  0  0  0  1  0  0
    3.9615   -2.3046    0.0000 C   0  0  0  0  0  0  0  0  0  2  0  0
    5.2605   -1.5546    0.0000 C   0  0  0  0  0  0  0  0  0  3  0  0
    5.2605   -0.0546    0.0000 C   0  0  0  0  0  0  0  0  0  4  0  0
    3.9615    0.6954    0.0000 C   0  0  0  0  0  0  0  0  0  5  0  0
    2.6624   -0.0546    0.0000 C   0  0  0  0  0  0  0  0  0  6  0  0
    1.3634    0.6954    0.0000 C   0  0  0  0  0  0  0  0  0  7  0  0
    0.0644   -0.0546    0.0000 O   0  0  0  0  0  0  0  0  0  8  0  0
    1.3634    2.1954    0.0000 C   0  0  0  0  0  0  0  0  0  9  0  0
    2.6624    2.9454    0.0000 C   0  0  0  0  0  0  0  0  0 10  0  0
    3.9615    2.1954    0.0000 O   0  0  0  0  0  0  0  0  0 11  0  0
    1.6232   -2.1546    0.0000 H   0  0  0  0  0  0  0  0  0  0  0  0
    3.9615   -3.8046    0.0000 O   0  0  0  0  0  0  0  0  0  0  0  0
    6.2997   -2.1546    0.0000 H   0  0  0  0  0  0  0  0  0  0  0  0
    8.2417   -1.3819    0.0000 C   0  0  0  0  0  0  0  0  0  0  0  0
    7.9299    0.0853    0.0000 C   0  0  0  0  0  0  0  0  0  0  0  0
    6.5595    0.6954    0.0000 C   0  0  0  0  0  0  0  0  0  0  0  0
    6.7163    2.1872    0.0000 C   0  0  0  0  0  0  0  0  0  0  0  0
    5.6016    3.1909    0.0000 O   0  0  0  0  0  0  0  0  0  0  0  0
    8.1836    2.4990    0.0000 O   0  0  0  0  0  0  0  0  0  0  0  0
    8.9336    1.2000    0.0000 C   0  0  0  0  0  0  0  0  0  0  0  0
    0.3242    2.7954    0.0000 H   0  0  0  0  0  0  0  0  0  0  0  0
    2.6624    4.4454    0.0000 C   0  0  0  0  0  0  0  0  0  0  0  0
    1.3634    5.1954    0.0000 C   0  0  0  0  0  0  0  0  0  0  0  0
    1.3634    6.6954    0.0000 C   0  0  0  0  0  0  0  0  0  0  0  0
    2.6624    7.4454    0.0000 C   0  0  0  0  0  0  0  0  0  0  0  0
    3.9615    6.6954    0.0000 C   0  0  0  0  0  0  0  0  0  0  0  0
    3.9615    5.1954    0.0000 C   0  0  0  0  0  0  0  0  0  0  0  0
  1  2  1  0  0  0  0
  1  6  2  0  0  0  0
  2  3  2  0  0  0  0
  3  4  1  0  0  0  0
  4  5  2  0  0  0  0
  5  6  1  0  0  0  0
  5 11  1  0  0  0  0
  6  7  1  0  0  0  0
  7  8  2  0  0  0  0
  7  9  1  0  0  0  0
  9 10  2  0  0  0  0
 10 11  1  0  0  0  0
  1 12  1  0  0  0  0
  2 13  1  0  0  0  0
  3 14  1  0  0  0  0
 15 16  1  0  0  0  0
 16 17  2  0  0  0  0
 16 21  1  0  0  0  0
 17 18  1  0  0  0  0
 18 19  2  0  0  0  0
 18 20  1  0  0  0  0
 20 21  1  0  0  0  0
  4 17  1  0  0  0  0
  9 22  1  0  0  0  0
 23 24  1  0  0  0  0
 23 28  2  0  0  0  0
 24 25  2  0  0  0  0
 25 26  1  0  0  0  0
 26 27  2  0  0  0  0
 27 28  1  0  0  0  0
 10 23  1  0  0  0  0
M  END
> <score_KierA3>
0.500317

$$$$
suggested molecule #263
 MOE2019            2D

 28 31  0  0  0  0  0  0  0  0999 V2000
    2.6624   -1.5546    0.0000 C   0  0  0  0  0  0  0  0  0  1  0  0
    3.9615   -2.3046    0.0000 C   0  0  0  0  0  0  0  0  0  2  0  0
    5.2605   -1.5546    0.0000 C   0  0  0  0  0  0  0  0  0  3  0  0
    5.2605   -0.0546    0.0000 C   0  0  0  0  0  0  0  0  0  4  0  0
    3.9615    0.6954    0.0000 C   0  0  0  0  0  0  0  0  0  5  0  0
    2.6624   -0.0546    0.0000 C   0  0  0  0  0  0  0  0  0  6  0  0
    1.3634    0.6954    0.0000 C   0  0  0  0  0  0  0  0  0  7  0  0
    0.0644   -0.0546    0.0000 O   0  0  0  0  0  0  0  0  0  8  0  0
    1.3634    2.1954    0.0000 C   0  0  0  0  0  0  0  0  0  9  0  0
    2.6624    2.9454    0.0000 C   0  0  0  0  0  0  0  0  0 10  0  0
    3.9615    2.1954    0.0000 O   0  0  0  0  0  0  0  0  0 11  0  0
    1.6232   -2.1546    0.0000 H   0  0  0  0  0  0  0  0  0  0  0  0
    3.9615   -3.8046    0.0000 O   0  0  0  0  0  0  0  0  0  0  0  0
    6.2997   -2.1546    0.0000 H   0  0  0  0  0  0  0  0  0  0  0  0
    8.2417   -1.3819    0.0000 C   0  0  0  0  0  0  0  0  0  0  0  0
    7.9299    0.0853    0.0000 C   0  0  0  0  0  0  0  0  0  0  0  0
    6.5595    0.6954    0.0000 C   0  0  0  0  0  0  0  0  0  0  0  0
    6.7163    2.1872    0.0000 C   0  0  0  0  0  0  0  0  0  0  0  0
    5.6016    3.1909    0.0000 O   0  0  0  0  0  0  0  0  0  0  0  0
    8.1836    2.4990    0.0000 O   0  0  0  0  0  0  0  0  0  0  0  0
    8.9336    1.2000    0.0000 C   0  0  0  0  0  0  0  0  0  0  0  0
    0.3242    2.7954    0.0000 H   0  0  0  0  0  0  0  0  0  0  0  0
    2.6624    4.4454    0.0000 C   0  0  0  0  0  0  0  0  0  0  0  0
    1.3634    5.1954    0.0000 C   0  0  0  0  0  0  0  0  0  0  0  0
    1.3634    6.6954    0.0000 C   0  0  0  0  0  0  0  0  0  0  0  0
    2.6624    7.4454    0.0000 C   0  0  0  0  0  0  0  0  0  0  0  0
    3.9615    6.6954    0.0000 C   0  0  0  0  0  0  0  0  0  0  0  0
    3.9615    5.1954    0.0000 C   0  0  0  0  0  0  0  0  0  0  0  0
  1  2  1  0  0  0  0
  1  6  2  0  0  0  0
  2  3  2  0  0  0  0
  3  4  1  0  0  0  0
  4  5  2  0  0  0  0
  5  6  1  0  0  0  0
  5 11  1  0  0  0  0
  6  7  1  0  0  0  0
  7  8  2  0  0  0  0
  7  9  1  0  0  0  0
  9 10  2  0  0  0  0
 10 11  1  0  0  0  0
  1 12  1  0  0  0  0
  2 13  1  0  0  0  0
  3 14  1  0  0  0  0
 15 16  1  0  0  0  0
 16 17  2  0  0  0  0
 16 21  1  0  0  0  0
 17 18  1  0  0  0  0
 18 19  2  0  0  0  0
 18 20  1  0  0  0  0
 20 21  1  0  0  0  0
  4 17  1  0  0  0  0
  9 22  1  0  0  0  0
 23 24  1  0  0  0  0
 23 28  2  0  0  0  0
 24 25  2  0  0  0  0
 25 26  1  0  0  0  0
 26 27  2  0  0  0  0
 27 28  1  0  0  0  0
 10 23  1  0  0  0  0
M  END
> <score_KierFlex>
0.500072

$$$$
suggested molecule #264
 MOE2019            2D

 28 30  0  0  0  0  0  0  0  0999 V2000
    2.6624   -1.5546    0.0000 C   0  0  0  0  0  0  0  0  0  1  0  0
    3.9615   -2.3046    0.0000 C   0  0  0  0  0  0  0  0  0  2  0  0
    5.2605   -1.5546    0.0000 C   0  0  0  0  0  0  0  0  0  3  0  0
    5.2605   -0.0546    0.0000 C   0  0  0  0  0  0  0  0  0  4  0  0
    3.9615    0.6954    0.0000 C   0  0  0  0  0  0  0  0  0  5  0  0
    2.6624   -0.0546    0.0000 C   0  0  0  0  0  0  0  0  0  6  0  0
    1.3634    0.6954    0.0000 C   0  0  0  0  0  0  0  0  0  7  0  0
    0.0644   -0.0546    0.0000 O   0  0  0  0  0  0  0  0  0  8  0  0
    1.3634    2.1954    0.0000 C   0  0  0  0  0  0  0  0  0  9  0  0
    2.6624    2.9454    0.0000 C   0  0  0  0  0  0  0  0  0 10  0  0
    3.9615    2.1954    0.0000 O   0  0  0  0  0  0  0  0  0 11  0  0
    1.6232   -2.1546    0.0000 H   0  0  0  0  0  0  0  0  0  0  0  0
    3.9615   -3.8046    0.0000 O   0  0  0  0  0  0  0  0  0  0  0  0
    6.2997   -2.1546    0.0000 H   0  0  0  0  0  0  0  0  0  0  0  0
    8.4076    1.9944    0.0000 C   0  0  0  0  0  0  0  0  0  0  0  0
    9.1576    0.6954    0.0000 C   0  0  0  0  0  0  0  0  0  0  0  0
   10.4567    1.4454    0.0000 C   0  0  0  0  0  0  0  0  0  0  0  0
    7.8586   -0.0546    0.0000 C   0  0  0  0  0  0  0  0  0  0  0  0
    6.5595    0.6954    0.0000 C   0  0  0  0  0  0  0  0  0  0  0  0
    7.8586   -1.5546    0.0000 O   0  0  0  0  0  0  0  0  0  0  0  0
    9.9076   -0.6036    0.0000 O   0  0  0  0  0  0  0  0  0  0  0  0
    0.3242    2.7954    0.0000 H   0  0  0  0  0  0  0  0  0  0  0  0
    2.6624    4.4454    0.0000 C   0  0  0  0  0  0  0  0  0  0  0  0
    1.3634    5.1954    0.0000 C   0  0  0  0  0  0  0  0  0  0  0  0
    1.3634    6.6954    0.0000 C   0  0  0  0  0  0  0  0  0  0  0  0
    2.6624    7.4454    0.0000 C   0  0  0  0  0  0  0  0  0  0  0  0
    3.9615    6.6954    0.0000 C   0  0  0  0  0  0  0  0  0  0  0  0
    3.9615    5.1954    0.0000 C   0  0  0  0  0  0  0  0  0  0  0  0
  1  2  1  0  0  0  0
  1  6  2  0  0  0  0
  2  3  2  0  0  0  0
  3  4  1  0  0  0  0
  4  5  2  0  0  0  0
  5  6  1  0  0  0  0
  5 11  1  0  0  0  0
  6  7  1  0  0  0  0
  7  8  2  0  0  0  0
  7  9  1  0  0  0  0
  9 10  2  0  0  0  0
 10 11  1  0  0  0  0
  1 12  1  0  0  0  0
  2 13  1  0  0  0  0
  3 14  1  0  0  0  0
 15 16  1  0  0  0  0
 16 17  1  0  0  0  0
 16 18  1  0  0  0  0
 16 21  1  0  0  0  0
 18 19  1  0  0  0  0
 18 20  1  0  0  0  0
  4 19  1  0  0  0  0
  9 22  1  0  0  0  0
 23 24  1  0  0  0  0
 23 28  2  0  0  0  0
 24 25  2  0  0  0  0
 25 26  1  0  0  0  0
 26 27  2  0  0  0  0
 27 28  1  0  0  0  0
 10 23  1  0  0  0  0
M  END
> <score_KierA3>
0.500299

$$$$
suggested molecule #265
 MOE2019            2D

 28 30  0  0  0  0  0  0  0  0999 V2000
    2.6624   -1.5546    0.0000 C   0  0  0  0  0  0  0  0  0  1  0  0
    3.9615   -2.3046    0.0000 C   0  0  0  0  0  0  0  0  0  2  0  0
    5.2605   -1.5546    0.0000 C   0  0  0  0  0  0  0  0  0  3  0  0
    5.2605   -0.0546    0.0000 C   0  0  0  0  0  0  0  0  0  4  0  0
    3.9615    0.6954    0.0000 C   0  0  0  0  0  0  0  0  0  5  0  0
    2.6624   -0.0546    0.0000 C   0  0  0  0  0  0  0  0  0  6  0  0
    1.3634    0.6954    0.0000 C   0  0  0  0  0  0  0  0  0  7  0  0
    0.0644   -0.0546    0.0000 O   0  0  0  0  0  0  0  0  0  8  0  0
    1.3634    2.1954    0.0000 C   0  0  0  0  0  0  0  0  0  9  0  0
    2.6624    2.9454    0.0000 C   0  0  0  0  0  0  0  0  0 10  0  0
    3.9615    2.1954    0.0000 O   0  0  0  0  0  0  0  0  0 11  0  0
    1.6232   -2.1546    0.0000 H   0  0  0  0  0  0  0  0  0  0  0  0
    3.9615   -3.8046    0.0000 O   0  0  0  0  0  0  0  0  0  0  0  0
    6.2997   -2.1546    0.0000 H   0  0  0  0  0  0  0  0  0  0  0  0
    8.4076    1.9944    0.0000 C   0  0  0  0  0  0  0  0  0  0  0  0
    9.1576    0.6954    0.0000 C   0  0  0  0  0  0  0  0  0  0  0  0
   10.4567    1.4454    0.0000 C   0  0  0  0  0  0  0  0  0  0  0  0
    7.8586   -0.0546    0.0000 C   0  0  0  0  0  0  0  0  0  0  0  0
    6.5595    0.6954    0.0000 C   0  0  0  0  0  0  0  0  0  0  0  0
    7.8586   -1.5546    0.0000 O   0  0  0  0  0  0  0  0  0  0  0  0
    9.9076   -0.6036    0.0000 O   0  0  0  0  0  0  0  0  0  0  0  0
    0.3242    2.7954    0.0000 H   0  0  0  0  0  0  0  0  0  0  0  0
    2.6624    4.4454    0.0000 C   0  0  0  0  0  0  0  0  0  0  0  0
    1.3634    5.1954    0.0000 C   0  0  0  0  0  0  0  0  0  0  0  0
    1.3634    6.6954    0.0000 C   0  0  0  0  0  0  0  0  0  0  0  0
    2.6624    7.4454    0.0000 C   0  0  0  0  0  0  0  0  0  0  0  0
    3.9615    6.6954    0.0000 C   0  0  0  0  0  0  0  0  0  0  0  0
    3.9615    5.1954    0.0000 C   0  0  0  0  0  0  0  0  0  0  0  0
  1  2  1  0  0  0  0
  1  6  2  0  0  0  0
  2  3  2  0  0  0  0
  3  4  1  0  0  0  0
  4  5  2  0  0  0  0
  5  6  1  0  0  0  0
  5 11  1  0  0  0  0
  6  7  1  0  0  0  0
  7  8  2  0  0  0  0
  7  9  1  0  0  0  0
  9 10  2  0  0  0  0
 10 11  1  0  0  0  0
  1 12  1  0  0  0  0
  2 13  1  0  0  0  0
  3 14  1  0  0  0  0
 15 16  1  0  0  0  0
 16 17  1  0  0  0  0
 16 18  1  0  0  0  0
 16 21  1  0  0  0  0
 18 19  1  0  0  0  0
 18 20  1  0  0  0  0
  4 19  1  0  0  0  0
  9 22  1  0  0  0  0
 23 24  1  0  0  0  0
 23 28  2  0  0  0  0
 24 25  2  0  0  0  0
 25 26  1  0  0  0  0
 26 27  2  0  0  0  0
 27 28  1  0  0  0  0
 10 23  1  0  0  0  0
M  END
> <score_KierFlex>
0.500058

$$$$
suggested molecule #266
 MOE2019            2D

 29 31  0  0  0  0  0  0  0  0999 V2000
    2.6624   -1.5546    0.0000 C   0  0  0  0  0  0  0  0  0  1  0  0
    3.9615   -2.3046    0.0000 C   0  0  0  0  0  0  0  0  0  2  0  0
    5.2605   -1.5546    0.0000 C   0  0  0  0  0  0  0  0  0  3  0  0
    5.2605   -0.0546    0.0000 C   0  0  0  0  0  0  0  0  0  4  0  0
    3.9615    0.6954    0.0000 C   0  0  0  0  0  0  0  0  0  5  0  0
    2.6624   -0.0546    0.0000 C   0  0  0  0  0  0  0  0  0  6  0  0
    1.3634    0.6954    0.0000 C   0  0  0  0  0  0  0  0  0  7  0  0
    0.0644   -0.0546    0.0000 O   0  0  0  0  0  0  0  0  0  8  0  0
    1.3634    2.1954    0.0000 C   0  0  0  0  0  0  0  0  0  9  0  0
    2.6624    2.9454    0.0000 C   0  0  0  0  0  0  0  0  0 10  0  0
    3.9615    2.1954    0.0000 O   0  0  0  0  0  0  0  0  0 11  0  0
    1.6232   -2.1546    0.0000 H   0  0  0  0  0  0  0  0  0  0  0  0
    3.9615   -3.8046    0.0000 O   0  0  0  0  0  0  0  0  0  0  0  0
    6.2997   -2.1546    0.0000 H   0  0  0  0  0  0  0  0  0  0  0  0
   10.4567   -0.0546    0.0000 C   0  0  0  0  0  0  0  0  0  0  0  0
    9.1576    0.6954    0.0000 C   0  0  0  0  0  0  0  0  0  0  0  0
    9.1576    2.1954    0.0000 C   0  0  0  0  0  0  0  0  0  0  0  0
    7.8586   -0.0546    0.0000 C   0  0  0  0  0  0  0  0  0  0  0  0
    6.5595    0.6954    0.0000 C   0  0  0  0  0  0  0  0  0  0  0  0
    6.5595    2.1954    0.0000 O   0  0  0  0  0  0  0  0  0  0  0  0
    7.8586    2.9454    0.0000 C   0  0  0  0  0  0  0  0  0  0  0  0
    7.8586   -1.5546    0.0000 O   0  0  0  0  0  0  0  0  0  0  0  0
    0.3242    2.7954    0.0000 H   0  0  0  0  0  0  0  0  0  0  0  0
    2.6624    4.4454    0.0000 C   0  0  0  0  0  0  0  0  0  0  0  0
    1.3634    5.1954    0.0000 C   0  0  0  0  0  0  0  0  0  0  0  0
    1.3634    6.6954    0.0000 C   0  0  0  0  0  0  0  0  0  0  0  0
    2.6624    7.4454    0.0000 C   0  0  0  0  0  0  0  0  0  0  0  0
    3.9615    6.6954    0.0000 C   0  0  0  0  0  0  0  0  0  0  0  0
    3.9615    5.1954    0.0000 C   0  0  0  0  0  0  0  0  0  0  0  0
  1  2  1  0  0  0  0
  1  6  2  0  0  0  0
  2  3  2  0  0  0  0
  3  4  1  0  0  0  0
  4  5  2  0  0  0  0
  5  6  1  0  0  0  0
  5 11  1  0  0  0  0
  6  7  1  0  0  0  0
  7  8  2  0  0  0  0
  7  9  1  0  0  0  0
  9 10  2  0  0  0  0
 10 11  1  0  0  0  0
  1 12  1  0  0  0  0
  2 13  1  0  0  0  0
  3 14  1  0  0  0  0
 15 16  1  0  0  0  0
 16 17  2  0  0  0  0
 16 18  1  0  0  0  0
 18 19  1  0  0  0  0
 18 22  1  0  0  0  0
 19 20  1  0  0  0  0
 20 21  1  0  0  0  0
  4 19  1  0  0  0  0
  9 23  1  0  0  0  0
 24 25  1  0  0  0  0
 24 29  2  0  0  0  0
 25 26  2  0  0  0  0
 26 27  1  0  0  0  0
 27 28  2  0  0  0  0
 28 29  1  0  0  0  0
 10 24  1  0  0  0  0
M  END
> <score_KierA3>
0.500302

$$$$
suggested molecule #267
 MOE2019            2D

 29 31  0  0  0  0  0  0  0  0999 V2000
    2.6624   -1.5546    0.0000 C   0  0  0  0  0  0  0  0  0  1  0  0
    3.9615   -2.3046    0.0000 C   0  0  0  0  0  0  0  0  0  2  0  0
    5.2605   -1.5546    0.0000 C   0  0  0  0  0  0  0  0  0  3  0  0
    5.2605   -0.0546    0.0000 C   0  0  0  0  0  0  0  0  0  4  0  0
    3.9615    0.6954    0.0000 C   0  0  0  0  0  0  0  0  0  5  0  0
    2.6624   -0.0546    0.0000 C   0  0  0  0  0  0  0  0  0  6  0  0
    1.3634    0.6954    0.0000 C   0  0  0  0  0  0  0  0  0  7  0  0
    0.0644   -0.0546    0.0000 O   0  0  0  0  0  0  0  0  0  8  0  0
    1.3634    2.1954    0.0000 C   0  0  0  0  0  0  0  0  0  9  0  0
    2.6624    2.9454    0.0000 C   0  0  0  0  0  0  0  0  0 10  0  0
    3.9615    2.1954    0.0000 O   0  0  0  0  0  0  0  0  0 11  0  0
    1.6232   -2.1546    0.0000 H   0  0  0  0  0  0  0  0  0  0  0  0
    3.9615   -3.8046    0.0000 O   0  0  0  0  0  0  0  0  0  0  0  0
    6.2997   -2.1546    0.0000 H   0  0  0  0  0  0  0  0  0  0  0  0
   10.4567   -0.0546    0.0000 C   0  0  0  0  0  0  0  0  0  0  0  0
    9.1576    0.6954    0.0000 C   0  0  0  0  0  0  0  0  0  0  0  0
    9.1576    2.1954    0.0000 C   0  0  0  0  0  0  0  0  0  0  0  0
    7.8586   -0.0546    0.0000 C   0  0  0  0  0  0  0  0  0  0  0  0
    6.5595    0.6954    0.0000 C   0  0  0  0  0  0  0  0  0  0  0  0
    6.5595    2.1954    0.0000 O   0  0  0  0  0  0  0  0  0  0  0  0
    7.8586    2.9454    0.0000 C   0  0  0  0  0  0  0  0  0  0  0  0
    7.8586   -1.5546    0.0000 O   0  0  0  0  0  0  0  0  0  0  0  0
    0.3242    2.7954    0.0000 H   0  0  0  0  0  0  0  0  0  0  0  0
    2.6624    4.4454    0.0000 C   0  0  0  0  0  0  0  0  0  0  0  0
    1.3634    5.1954    0.0000 C   0  0  0  0  0  0  0  0  0  0  0  0
    1.3634    6.6954    0.0000 C   0  0  0  0  0  0  0  0  0  0  0  0
    2.6624    7.4454    0.0000 C   0  0  0  0  0  0  0  0  0  0  0  0
    3.9615    6.6954    0.0000 C   0  0  0  0  0  0  0  0  0  0  0  0
    3.9615    5.1954    0.0000 C   0  0  0  0  0  0  0  0  0  0  0  0
  1  2  1  0  0  0  0
  1  6  2  0  0  0  0
  2  3  2  0  0  0  0
  3  4  1  0  0  0  0
  4  5  2  0  0  0  0
  5  6  1  0  0  0  0
  5 11  1  0  0  0  0
  6  7  1  0  0  0  0
  7  8  2  0  0  0  0
  7  9  1  0  0  0  0
  9 10  2  0  0  0  0
 10 11  1  0  0  0  0
  1 12  1  0  0  0  0
  2 13  1  0  0  0  0
  3 14  1  0  0  0  0
 15 16  1  0  0  0  0
 16 17  2  0  0  0  0
 16 18  1  0  0  0  0
 18 19  1  0  0  0  0
 18 22  1  0  0  0  0
 19 20  1  0  0  0  0
 20 21  1  0  0  0  0
  4 19  1  0  0  0  0
  9 23  1  0  0  0  0
 24 25  1  0  0  0  0
 24 29  2  0  0  0  0
 25 26  2  0  0  0  0
 26 27  1  0  0  0  0
 27 28  2  0  0  0  0
 28 29  1  0  0  0  0
 10 24  1  0  0  0  0
M  END
> <score_KierFlex>
0.500053

$$$$
suggested molecule #268
 MOE2019            2D

 28 30  0  0  0  0  0  0  0  0999 V2000
    2.6624   -1.5546    0.0000 C   0  0  0  0  0  0  0  0  0  1  0  0
    3.9615   -2.3046    0.0000 C   0  0  0  0  0  0  0  0  0  2  0  0
    5.2605   -1.5546    0.0000 C   0  0  0  0  0  0  0  0  0  3  0  0
    5.2605   -0.0546    0.0000 C   0  0  0  0  0  0  0  0  0  4  0  0
    3.9615    0.6954    0.0000 C   0  0  0  0  0  0  0  0  0  5  0  0
    2.6624   -0.0546    0.0000 C   0  0  0  0  0  0  0  0  0  6  0  0
    1.3634    0.6954    0.0000 C   0  0  0  0  0  0  0  0  0  7  0  0
    0.0644   -0.0546    0.0000 O   0  0  0  0  0  0  0  0  0  8  0  0
    1.3634    2.1954    0.0000 C   0  0  0  0  0  0  0  0  0  9  0  0
    2.6624    2.9454    0.0000 C   0  0  0  0  0  0  0  0  0 10  0  0
    3.9615    2.1954    0.0000 O   0  0  0  0  0  0  0  0  0 11  0  0
    1.6232   -2.1546    0.0000 H   0  0  0  0  0  0  0  0  0  0  0  0
    3.9615   -3.8046    0.0000 O   0  0  0  0  0  0  0  0  0  0  0  0
    6.2997   -2.1546    0.0000 H   0  0  0  0  0  0  0  0  0  0  0  0
    8.4076    1.9944    0.0000 C   0  0  0  0  0  0  0  0  0  0  0  0
    9.1576    0.6954    0.0000 C   0  0  0  0  0  0  0  0  0  0  0  0
   10.4567    1.4454    0.0000 C   0  0  0  0  0  0  0  0  0  0  0  0
    7.8586   -0.0546    0.0000 C   0  0  0  0  0  0  0  0  0  0  0  0
    6.5595    0.6954    0.0000 C   0  0  0  0  0  0  0  0  0  0  0  0
    7.8586   -1.5546    0.0000 O   0  0  0  0  0  0  0  0  0  0  0  0
    9.9076   -0.6036    0.0000 O   0  0  0  0  0  0  0  0  0  0  0  0
    0.3242    2.7954    0.0000 H   0  0  0  0  0  0  0  0  0  0  0  0
    2.6624    4.4454    0.0000 C   0  0  0  0  0  0  0  0  0  0  0  0
    1.3634    5.1954    0.0000 C   0  0  0  0  0  0  0  0  0  0  0  0
    1.3634    6.6954    0.0000 C   0  0  0  0  0  0  0  0  0  0  0  0
    2.6624    7.4454    0.0000 C   0  0  0  0  0  0  0  0  0  0  0  0
    3.9615    6.6954    0.0000 C   0  0  0  0  0  0  0  0  0  0  0  0
    3.9615    5.1954    0.0000 C   0  0  0  0  0  0  0  0  0  0  0  0
  1  2  1  0  0  0  0
  1  6  2  0  0  0  0
  2  3  2  0  0  0  0
  3  4  1  0  0  0  0
  4  5  2  0  0  0  0
  5  6  1  0  0  0  0
  5 11  1  0  0  0  0
  6  7  1  0  0  0  0
  7  8  2  0  0  0  0
  7  9  1  0  0  0  0
  9 10  2  0  0  0  0
 10 11  1  0  0  0  0
  1 12  1  0  0  0  0
  2 13  1  0  0  0  0
  3 14  1  0  0  0  0
 15 16  1  0  0  0  0
 16 17  1  0  0  0  0
 16 18  1  0  0  0  0
 16 21  1  0  0  0  0
 18 19  1  0  0  0  0
 18 20  1  0  0  0  0
  4 19  1  0  0  0  0
  9 22  1  0  0  0  0
 23 24  1  0  0  0  0
 23 28  2  0  0  0  0
 24 25  2  0  0  0  0
 25 26  1  0  0  0  0
 26 27  2  0  0  0  0
 27 28  1  0  0  0  0
 10 23  1  0  0  0  0
M  END
> <score_KierA3>
0.500319

$$$$
suggested molecule #269
 MOE2019            2D

 28 30  0  0  0  0  0  0  0  0999 V2000
    2.6624   -1.5546    0.0000 C   0  0  0  0  0  0  0  0  0  1  0  0
    3.9615   -2.3046    0.0000 C   0  0  0  0  0  0  0  0  0  2  0  0
    5.2605   -1.5546    0.0000 C   0  0  0  0  0  0  0  0  0  3  0  0
    5.2605   -0.0546    0.0000 C   0  0  0  0  0  0  0  0  0  4  0  0
    3.9615    0.6954    0.0000 C   0  0  0  0  0  0  0  0  0  5  0  0
    2.6624   -0.0546    0.0000 C   0  0  0  0  0  0  0  0  0  6  0  0
    1.3634    0.6954    0.0000 C   0  0  0  0  0  0  0  0  0  7  0  0
    0.0644   -0.0546    0.0000 O   0  0  0  0  0  0  0  0  0  8  0  0
    1.3634    2.1954    0.0000 C   0  0  0  0  0  0  0  0  0  9  0  0
    2.6624    2.9454    0.0000 C   0  0  0  0  0  0  0  0  0 10  0  0
    3.9615    2.1954    0.0000 O   0  0  0  0  0  0  0  0  0 11  0  0
    1.6232   -2.1546    0.0000 H   0  0  0  0  0  0  0  0  0  0  0  0
    3.9615   -3.8046    0.0000 O   0  0  0  0  0  0  0  0  0  0  0  0
    6.2997   -2.1546    0.0000 H   0  0  0  0  0  0  0  0  0  0  0  0
    8.4076    1.9944    0.0000 C   0  0  0  0  0  0  0  0  0  0  0  0
    9.1576    0.6954    0.0000 C   0  0  0  0  0  0  0  0  0  0  0  0
   10.4567    1.4454    0.0000 C   0  0  0  0  0  0  0  0  0  0  0  0
    7.8586   -0.0546    0.0000 C   0  0  0  0  0  0  0  0  0  0  0  0
    6.5595    0.6954    0.0000 C   0  0  0  0  0  0  0  0  0  0  0  0
    7.8586   -1.5546    0.0000 O   0  0  0  0  0  0  0  0  0  0  0  0
    9.9076   -0.6036    0.0000 O   0  0  0  0  0  0  0  0  0  0  0  0
    0.3242    2.7954    0.0000 H   0  0  0  0  0  0  0  0  0  0  0  0
    2.6624    4.4454    0.0000 C   0  0  0  0  0  0  0  0  0  0  0  0
    1.3634    5.1954    0.0000 C   0  0  0  0  0  0  0  0  0  0  0  0
    1.3634    6.6954    0.0000 C   0  0  0  0  0  0  0  0  0  0  0  0
    2.6624    7.4454    0.0000 C   0  0  0  0  0  0  0  0  0  0  0  0
    3.9615    6.6954    0.0000 C   0  0  0  0  0  0  0  0  0  0  0  0
    3.9615    5.1954    0.0000 C   0  0  0  0  0  0  0  0  0  0  0  0
  1  2  1  0  0  0  0
  1  6  2  0  0  0  0
  2  3  2  0  0  0  0
  3  4  1  0  0  0  0
  4  5  2  0  0  0  0
  5  6  1  0  0  0  0
  5 11  1  0  0  0  0
  6  7  1  0  0  0  0
  7  8  2  0  0  0  0
  7  9  1  0  0  0  0
  9 10  2  0  0  0  0
 10 11  1  0  0  0  0
  1 12  1  0  0  0  0
  2 13  1  0  0  0  0
  3 14  1  0  0  0  0
 15 16  1  0  0  0  0
 16 17  1  0  0  0  0
 16 18  1  0  0  0  0
 16 21  1  0  0  0  0
 18 19  1  0  0  0  0
 18 20  1  0  0  0  0
  4 19  1  0  0  0  0
  9 22  1  0  0  0  0
 23 24  1  0  0  0  0
 23 28  2  0  0  0  0
 24 25  2  0  0  0  0
 25 26  1  0  0  0  0
 26 27  2  0  0  0  0
 27 28  1  0  0  0  0
 10 23  1  0  0  0  0
M  END
> <score_KierFlex>
0.500079

$$$$
suggested molecule #270
 MOE2019            2D

 27 29  0  0  0  0  0  0  0  0999 V2000
    2.6624   -1.5546    0.0000 C   0  0  0  0  0  0  0  0  0  1  0  0
    3.9615   -2.3046    0.0000 C   0  0  0  0  0  0  0  0  0  2  0  0
    5.2605   -1.5546    0.0000 C   0  0  0  0  0  0  0  0  0  3  0  0
    5.2605   -0.0546    0.0000 C   0  0  0  0  0  0  0  0  0  4  0  0
    3.9615    0.6954    0.0000 C   0  0  0  0  0  0  0  0  0  5  0  0
    2.6624   -0.0546    0.0000 C   0  0  0  0  0  0  0  0  0  6  0  0
    1.3634    0.6954    0.0000 C   0  0  0  0  0  0  0  0  0  7  0  0
    0.0644   -0.0546    0.0000 O   0  0  0  0  0  0  0  0  0  8  0  0
    1.3634    2.1954    0.0000 C   0  0  0  0  0  0  0  0  0  9  0  0
    2.6624    2.9454    0.0000 C   0  0  0  0  0  0  0  0  0 10  0  0
    3.9615    2.1954    0.0000 O   0  0  0  0  0  0  0  0  0 11  0  0
    1.6232   -2.1546    0.0000 H   0  0  0  0  0  0  0  0  0  0  0  0
    3.9615   -3.8046    0.0000 O   0  0  0  0  0  0  0  0  0  0  0  0
    6.2997   -2.1546    0.0000 H   0  0  0  0  0  0  0  0  0  0  0  0
    7.8586   -1.5546    0.0000 C   0  0  0  0  0  0  0  0  0  0  0  0
    7.8586   -0.0546    0.0000 C   0  0  0  0  0  0  0  0  0  0  0  0
    6.5595    0.6954    0.0000 C   0  0  0  0  0  0  0  0  0  0  0  0
    6.5595    2.1954    0.0000 C   0  0  0  0  0  0  0  0  0  0  0  0
    7.8586    2.9454    0.0000 O   0  0  0  0  0  0  0  0  0  0  0  0
    9.1576    0.6954    0.0000 C   0  0  0  0  0  0  0  0  0  0  0  0
    0.3242    2.7954    0.0000 H   0  0  0  0  0  0  0  0  0  0  0  0
    2.6624    4.4454    0.0000 C   0  0  0  0  0  0  0  0  0  0  0  0
    1.3634    5.1954    0.0000 C   0  0  0  0  0  0  0  0  0  0  0  0
    1.3634    6.6954    0.0000 C   0  0  0  0  0  0  0  0  0  0  0  0
    2.6624    7.4454    0.0000 C   0  0  0  0  0  0  0  0  0  0  0  0
    3.9615    6.6954    0.0000 C   0  0  0  0  0  0  0  0  0  0  0  0
    3.9615    5.1954    0.0000 C   0  0  0  0  0  0  0  0  0  0  0  0
  1  2  2  0  0  0  0
  1  6  1  0  0  0  0
  2  3  1  0  0  0  0
  3  4  2  0  0  0  0
  4  5  1  0  0  0  0
  5  6  2  0  0  0  0
  5 11  1  0  0  0  0
  6  7  1  0  0  0  0
  7  8  2  0  0  0  0
  7  9  1  0  0  0  0
  9 10  2  0  0  0  0
 10 11  1  0  0  0  0
  1 12  1  0  0  0  0
  2 13  1  0  0  0  0
  3 14  1  0  0  0  0
 15 16  1  0  0  0  0
 16 17  2  0  0  0  0
 16 20  1  0  0  0  0
 17 18  1  0  0  0  0
 18 19  2  0  0  0  0
  4 17  1  0  0  0  0
  9 21  1  0  0  0  0
 22 23  1  0  0  0  0
 22 27  2  0  0  0  0
 23 24  2  0  0  0  0
 24 25  1  0  0  0  0
 25 26  2  0  0  0  0
 26 27  1  0  0  0  0
 10 22  1  0  0  0  0
M  END
> <score_KierA3>
0.500311

$$$$
suggested molecule #271
 MOE2019            2D

 27 29  0  0  0  0  0  0  0  0999 V2000
    2.6624   -1.5546    0.0000 C   0  0  0  0  0  0  0  0  0  1  0  0
    3.9615   -2.3046    0.0000 C   0  0  0  0  0  0  0  0  0  2  0  0
    5.2605   -1.5546    0.0000 C   0  0  0  0  0  0  0  0  0  3  0  0
    5.2605   -0.0546    0.0000 C   0  0  0  0  0  0  0  0  0  4  0  0
    3.9615    0.6954    0.0000 C   0  0  0  0  0  0  0  0  0  5  0  0
    2.6624   -0.0546    0.0000 C   0  0  0  0  0  0  0  0  0  6  0  0
    1.3634    0.6954    0.0000 C   0  0  0  0  0  0  0  0  0  7  0  0
    0.0644   -0.0546    0.0000 O   0  0  0  0  0  0  0  0  0  8  0  0
    1.3634    2.1954    0.0000 C   0  0  0  0  0  0  0  0  0  9  0  0
    2.6624    2.9454    0.0000 C   0  0  0  0  0  0  0  0  0 10  0  0
    3.9615    2.1954    0.0000 O   0  0  0  0  0  0  0  0  0 11  0  0
    1.6232   -2.1546    0.0000 H   0  0  0  0  0  0  0  0  0  0  0  0
    3.9615   -3.8046    0.0000 O   0  0  0  0  0  0  0  0  0  0  0  0
    6.2997   -2.1546    0.0000 H   0  0  0  0  0  0  0  0  0  0  0  0
    7.8586   -1.5546    0.0000 C   0  0  0  0  0  0  0  0  0  0  0  0
    7.8586   -0.0546    0.0000 C   0  0  0  0  0  0  0  0  0  0  0  0
    6.5595    0.6954    0.0000 C   0  0  0  0  0  0  0  0  0  0  0  0
    6.5595    2.1954    0.0000 C   0  0  0  0  0  0  0  0  0  0  0  0
    7.8586    2.9454    0.0000 O   0  0  0  0  0  0  0  0  0  0  0  0
    9.1576    0.6954    0.0000 C   0  0  0  0  0  0  0  0  0  0  0  0
    0.3242    2.7954    0.0000 H   0  0  0  0  0  0  0  0  0  0  0  0
    2.6624    4.4454    0.0000 C   0  0  0  0  0  0  0  0  0  0  0  0
    1.3634    5.1954    0.0000 C   0  0  0  0  0  0  0  0  0  0  0  0
    1.3634    6.6954    0.0000 C   0  0  0  0  0  0  0  0  0  0  0  0
    2.6624    7.4454    0.0000 C   0  0  0  0  0  0  0  0  0  0  0  0
    3.9615    6.6954    0.0000 C   0  0  0  0  0  0  0  0  0  0  0  0
    3.9615    5.1954    0.0000 C   0  0  0  0  0  0  0  0  0  0  0  0
  1  2  2  0  0  0  0
  1  6  1  0  0  0  0
  2  3  1  0  0  0  0
  3  4  2  0  0  0  0
  4  5  1  0  0  0  0
  5  6  2  0  0  0  0
  5 11  1  0  0  0  0
  6  7  1  0  0  0  0
  7  8  2  0  0  0  0
  7  9  1  0  0  0  0
  9 10  2  0  0  0  0
 10 11  1  0  0  0  0
  1 12  1  0  0  0  0
  2 13  1  0  0  0  0
  3 14  1  0  0  0  0
 15 16  1  0  0  0  0
 16 17  2  0  0  0  0
 16 20  1  0  0  0  0
 17 18  1  0  0  0  0
 18 19  2  0  0  0  0
  4 17  1  0  0  0  0
  9 21  1  0  0  0  0
 22 23  1  0  0  0  0
 22 27  2  0  0  0  0
 23 24  2  0  0  0  0
 24 25  1  0  0  0  0
 25 26  2  0  0  0  0
 26 27  1  0  0  0  0
 10 22  1  0  0  0  0
M  END
> <score_KierFlex>
0.500066

$$$$
suggested molecule #272
 MOE2019            2D

 29 31  0  0  0  0  0  0  0  0999 V2000
    2.6624   -1.5546    0.0000 C   0  0  0  0  0  0  0  0  0  1  0  0
    3.9615   -2.3046    0.0000 C   0  0  0  0  0  0  0  0  0  2  0  0
    5.2605   -1.5546    0.0000 C   0  0  0  0  0  0  0  0  0  3  0  0
    5.2605   -0.0546    0.0000 C   0  0  0  0  0  0  0  0  0  4  0  0
    3.9615    0.6954    0.0000 C   0  0  0  0  0  0  0  0  0  5  0  0
    2.6624   -0.0546    0.0000 C   0  0  0  0  0  0  0  0  0  6  0  0
    1.3634    0.6954    0.0000 C   0  0  0  0  0  0  0  0  0  7  0  0
    0.0644   -0.0546    0.0000 O   0  0  0  0  0  0  0  0  0  8  0  0
    1.3634    2.1954    0.0000 C   0  0  0  0  0  0  0  0  0  9  0  0
    2.6624    2.9454    0.0000 C   0  0  0  0  0  0  0  0  0 10  0  0
    3.9615    2.1954    0.0000 O   0  0  0  0  0  0  0  0  0 11  0  0
    1.6232   -2.1546    0.0000 H   0  0  0  0  0  0  0  0  0  0  0  0
    3.9615   -3.8046    0.0000 O   0  0  0  0  0  0  0  0  0  0  0  0
    6.2997   -2.1546    0.0000 H   0  0  0  0  0  0  0  0  0  0  0  0
    8.4076    1.9944    0.0000 C   0  0  0  0  0  0  0  0  0  0  0  0
    9.1576    0.6954    0.0000 C   0  0  0  0  0  0  0  0  0  0  0  0
    9.9076   -0.6036    0.0000 C   0  0  0  0  0  0  0  0  0  0  0  0
    7.8586   -0.0546    0.0000 C   0  0  0  0  0  0  0  0  0  0  0  0
    6.5595    0.6954    0.0000 C   0  0  0  0  0  0  0  0  0  0  0  0
    7.8586   -1.5546    0.0000 O   0  0  0  0  0  0  0  0  0  0  0  0
   10.4567    1.4454    0.0000 O   0  0  0  0  0  0  0  0  0  0  0  0
   11.7557    0.6954    0.0000 C   0  0  0  0  0  0  0  0  0  0  0  0
    0.3242    2.7954    0.0000 H   0  0  0  0  0  0  0  0  0  0  0  0
    2.6624    4.4454    0.0000 C   0  0  0  0  0  0  0  0  0  0  0  0
    1.3634    5.1954    0.0000 C   0  0  0  0  0  0  0  0  0  0  0  0
    1.3634    6.6954    0.0000 C   0  0  0  0  0  0  0  0  0  0  0  0
    2.6624    7.4454    0.0000 C   0  0  0  0  0  0  0  0  0  0  0  0
    3.9615    6.6954    0.0000 C   0  0  0  0  0  0  0  0  0  0  0  0
    3.9615    5.1954    0.0000 C   0  0  0  0  0  0  0  0  0  0  0  0
  1  2  1  0  0  0  0
  1  6  2  0  0  0  0
  2  3  2  0  0  0  0
  3  4  1  0  0  0  0
  4  5  2  0  0  0  0
  5  6  1  0  0  0  0
  5 11  1  0  0  0  0
  6  7  1  0  0  0  0
  7  8  2  0  0  0  0
  7  9  1  0  0  0  0
  9 10  2  0  0  0  0
 10 11  1  0  0  0  0
  1 12  1  0  0  0  0
  2 13  1  0  0  0  0
  3 14  1  0  0  0  0
 15 16  1  0  0  0  0
 16 17  1  0  0  0  0
 16 18  1  0  0  0  0
 16 21  1  0  0  0  0
 18 19  1  0  0  0  0
 18 20  1  0  0  0  0
 21 22  1  0  0  0  0
  4 19  1  0  0  0  0
  9 23  1  0  0  0  0
 24 25  1  0  0  0  0
 24 29  2  0  0  0  0
 25 26  2  0  0  0  0
 26 27  1  0  0  0  0
 27 28  2  0  0  0  0
 28 29  1  0  0  0  0
 10 24  1  0  0  0  0
M  END
> <score_KierA3>
0.500298

$$$$
suggested molecule #273
 MOE2019            2D

 29 31  0  0  0  0  0  0  0  0999 V2000
    2.6624   -1.5546    0.0000 C   0  0  0  0  0  0  0  0  0  1  0  0
    3.9615   -2.3046    0.0000 C   0  0  0  0  0  0  0  0  0  2  0  0
    5.2605   -1.5546    0.0000 C   0  0  0  0  0  0  0  0  0  3  0  0
    5.2605   -0.0546    0.0000 C   0  0  0  0  0  0  0  0  0  4  0  0
    3.9615    0.6954    0.0000 C   0  0  0  0  0  0  0  0  0  5  0  0
    2.6624   -0.0546    0.0000 C   0  0  0  0  0  0  0  0  0  6  0  0
    1.3634    0.6954    0.0000 C   0  0  0  0  0  0  0  0  0  7  0  0
    0.0644   -0.0546    0.0000 O   0  0  0  0  0  0  0  0  0  8  0  0
    1.3634    2.1954    0.0000 C   0  0  0  0  0  0  0  0  0  9  0  0
    2.6624    2.9454    0.0000 C   0  0  0  0  0  0  0  0  0 10  0  0
    3.9615    2.1954    0.0000 O   0  0  0  0  0  0  0  0  0 11  0  0
    1.6232   -2.1546    0.0000 H   0  0  0  0  0  0  0  0  0  0  0  0
    3.9615   -3.8046    0.0000 O   0  0  0  0  0  0  0  0  0  0  0  0
    6.2997   -2.1546    0.0000 H   0  0  0  0  0  0  0  0  0  0  0  0
    8.4076    1.9944    0.0000 C   0  0  0  0  0  0  0  0  0  0  0  0
    9.1576    0.6954    0.0000 C   0  0  0  0  0  0  0  0  0  0  0  0
    9.9076   -0.6036    0.0000 C   0  0  0  0  0  0  0  0  0  0  0  0
    7.8586   -0.0546    0.0000 C   0  0  0  0  0  0  0  0  0  0  0  0
    6.5595    0.6954    0.0000 C   0  0  0  0  0  0  0  0  0  0  0  0
    7.8586   -1.5546    0.0000 O   0  0  0  0  0  0  0  0  0  0  0  0
   10.4567    1.4454    0.0000 O   0  0  0  0  0  0  0  0  0  0  0  0
   11.7557    0.6954    0.0000 C   0  0  0  0  0  0  0  0  0  0  0  0
    0.3242    2.7954    0.0000 H   0  0  0  0  0  0  0  0  0  0  0  0
    2.6624    4.4454    0.0000 C   0  0  0  0  0  0  0  0  0  0  0  0
    1.3634    5.1954    0.0000 C   0  0  0  0  0  0  0  0  0  0  0  0
    1.3634    6.6954    0.0000 C   0  0  0  0  0  0  0  0  0  0  0  0
    2.6624    7.4454    0.0000 C   0  0  0  0  0  0  0  0  0  0  0  0
    3.9615    6.6954    0.0000 C   0  0  0  0  0  0  0  0  0  0  0  0
    3.9615    5.1954    0.0000 C   0  0  0  0  0  0  0  0  0  0  0  0
  1  2  1  0  0  0  0
  1  6  2  0  0  0  0
  2  3  2  0  0  0  0
  3  4  1  0  0  0  0
  4  5  2  0  0  0  0
  5  6  1  0  0  0  0
  5 11  1  0  0  0  0
  6  7  1  0  0  0  0
  7  8  2  0  0  0  0
  7  9  1  0  0  0  0
  9 10  2  0  0  0  0
 10 11  1  0  0  0  0
  1 12  1  0  0  0  0
  2 13  1  0  0  0  0
  3 14  1  0  0  0  0
 15 16  1  0  0  0  0
 16 17  1  0  0  0  0
 16 18  1  0  0  0  0
 16 21  1  0  0  0  0
 18 19  1  0  0  0  0
 18 20  1  0  0  0  0
 21 22  1  0  0  0  0
  4 19  1  0  0  0  0
  9 23  1  0  0  0  0
 24 25  1  0  0  0  0
 24 29  2  0  0  0  0
 25 26  2  0  0  0  0
 26 27  1  0  0  0  0
 27 28  2  0  0  0  0
 28 29  1  0  0  0  0
 10 24  1  0  0  0  0
M  END
> <score_KierFlex>
0.500052

$$$$
suggested molecule #274
 MOE2019            2D

 31 33  0  0  0  0  0  0  0  0999 V2000
    2.6624   -1.5546    0.0000 C   0  0  0  0  0  0  0  0  0  1  0  0
    3.9615   -2.3046    0.0000 C   0  0  0  0  0  0  0  0  0  2  0  0
    5.2605   -1.5546    0.0000 C   0  0  0  0  0  0  0  0  0  3  0  0
    5.2605   -0.0546    0.0000 C   0  0  0  0  0  0  0  0  0  4  0  0
    3.9615    0.6954    0.0000 C   0  0  0  0  0  0  0  0  0  5  0  0
    2.6624   -0.0546    0.0000 C   0  0  0  0  0  0  0  0  0  6  0  0
    1.3634    0.6954    0.0000 C   0  0  0  0  0  0  0  0  0  7  0  0
    0.0644   -0.0546    0.0000 O   0  0  0  0  0  0  0  0  0  8  0  0
    1.3634    2.1954    0.0000 C   0  0  0  0  0  0  0  0  0  9  0  0
    2.6624    2.9454    0.0000 C   0  0  0  0  0  0  0  0  0 10  0  0
    3.9615    2.1954    0.0000 O   0  0  0  0  0  0  0  0  0 11  0  0
    1.6232   -2.1546    0.0000 H   0  0  0  0  0  0  0  0  0  0  0  0
    3.9615   -3.8046    0.0000 O   0  0  0  0  0  0  0  0  0  0  0  0
    5.7801   -1.8546    0.0000 H   0  0  0  0  0  0  0  0  0  0  0  0
    6.5595   -2.3046    0.0000 C   0  0  0  0  0  0  0  0  0  0  0  0
    7.8586   -1.5546    0.0000 C   0  0  0  0  0  0  0  0  0  0  0  0
    9.1576   -2.3046    0.0000 C   0  0  0  0  0  0  0  0  0  0  0  0
    7.8586   -0.0546    0.0000 C   0  0  0  0  0  0  0  0  0  0  0  0
    9.1576    0.6954    0.0000 O   0  0  0  0  0  0  0  0  0  0  0  0
    6.5595    0.6954    0.0000 C   0  0  0  0  0  0  0  0  0  0  0  0
    6.5595    2.1954    0.0000 O   0  0  0  0  0  0  0  0  0  0  0  0
    7.8586    2.9454    0.0000 C   0  0  0  0  0  0  0  0  0  0  0  0
    7.8586    4.4454    0.0000 O   0  0  0  0  0  0  0  0  0  0  0  0
    9.1576    2.1954    0.0000 C   0  0  0  0  0  0  0  0  0  0  0  0
    0.3242    2.7954    0.0000 H   0  0  0  0  0  0  0  0  0  0  0  0
    2.6624    4.4454    0.0000 C   0  0  0  0  0  0  0  0  0  0  0  0
    1.3634    5.1954    0.0000 C   0  0  0  0  0  0  0  0  0  0  0  0
    1.3634    6.6954    0.0000 C   0  0  0  0  0  0  0  0  0  0  0  0
    2.6624    7.4454    0.0000 C   0  0  0  0  0  0  0  0  0  0  0  0
    3.9615    6.6954    0.0000 C   0  0  0  0  0  0  0  0  0  0  0  0
    3.9615    5.1954    0.0000 C   0  0  0  0  0  0  0  0  0  0  0  0
  1  2  1  0  0  0  0
  1  6  2  0  0  0  0
  2  3  2  0  0  0  0
  3  4  1  0  0  0  0
  4  5  2  0  0  0  0
  5  6  1  0  0  0  0
  5 11  1  0  0  0  0
  6  7  1  0  0  0  0
  7  8  2  0  0  0  0
  7  9  1  0  0  0  0
  9 10  2  0  0  0  0
 10 11  1  0  0  0  0
  1 12  1  0  0  0  0
  2 13  1  0  0  0  0
  3 14  1  0  0  0  0
 15 16  1  0  0  0  0
 16 17  1  0  0  0  0
 16 18  1  0  0  0  0
 18 19  2  0  0  0  0
 18 20  1  0  0  0  0
 20 21  1  0  0  0  0
 21 22  1  0  0  0  0
 22 23  2  0  0  0  0
 22 24  1  0  0  0  0
  4 20  1  0  0  0  0
  9 25  1  0  0  0  0
 26 27  1  0  0  0  0
 26 31  2  0  0  0  0
 27 28  2  0  0  0  0
 28 29  1  0  0  0  0
 29 30  2  0  0  0  0
 30 31  1  0  0  0  0
 10 26  1  0  0  0  0
M  END
> <score_KierA3>
0.500294

$$$$
suggested molecule #275
 MOE2019            2D

 31 33  0  0  0  0  0  0  0  0999 V2000
    2.6624   -1.5546    0.0000 C   0  0  0  0  0  0  0  0  0  1  0  0
    3.9615   -2.3046    0.0000 C   0  0  0  0  0  0  0  0  0  2  0  0
    5.2605   -1.5546    0.0000 C   0  0  0  0  0  0  0  0  0  3  0  0
    5.2605   -0.0546    0.0000 C   0  0  0  0  0  0  0  0  0  4  0  0
    3.9615    0.6954    0.0000 C   0  0  0  0  0  0  0  0  0  5  0  0
    2.6624   -0.0546    0.0000 C   0  0  0  0  0  0  0  0  0  6  0  0
    1.3634    0.6954    0.0000 C   0  0  0  0  0  0  0  0  0  7  0  0
    0.0644   -0.0546    0.0000 O   0  0  0  0  0  0  0  0  0  8  0  0
    1.3634    2.1954    0.0000 C   0  0  0  0  0  0  0  0  0  9  0  0
    2.6624    2.9454    0.0000 C   0  0  0  0  0  0  0  0  0 10  0  0
    3.9615    2.1954    0.0000 O   0  0  0  0  0  0  0  0  0 11  0  0
    1.6232   -2.1546    0.0000 H   0  0  0  0  0  0  0  0  0  0  0  0
    3.9615   -3.8046    0.0000 O   0  0  0  0  0  0  0  0  0  0  0  0
    5.7801   -1.8546    0.0000 H   0  0  0  0  0  0  0  0  0  0  0  0
    6.5595   -2.3046    0.0000 C   0  0  0  0  0  0  0  0  0  0  0  0
    7.8586   -1.5546    0.0000 C   0  0  0  0  0  0  0  0  0  0  0  0
    9.1576   -2.3046    0.0000 C   0  0  0  0  0  0  0  0  0  0  0  0
    7.8586   -0.0546    0.0000 C   0  0  0  0  0  0  0  0  0  0  0  0
    9.1576    0.6954    0.0000 O   0  0  0  0  0  0  0  0  0  0  0  0
    6.5595    0.6954    0.0000 C   0  0  0  0  0  0  0  0  0  0  0  0
    6.5595    2.1954    0.0000 O   0  0  0  0  0  0  0  0  0  0  0  0
    7.8586    2.9454    0.0000 C   0  0  0  0  0  0  0  0  0  0  0  0
    7.8586    4.4454    0.0000 O   0  0  0  0  0  0  0  0  0  0  0  0
    9.1576    2.1954    0.0000 C   0  0  0  0  0  0  0  0  0  0  0  0
    0.3242    2.7954    0.0000 H   0  0  0  0  0  0  0  0  0  0  0  0
    2.6624    4.4454    0.0000 C   0  0  0  0  0  0  0  0  0  0  0  0
    1.3634    5.1954    0.0000 C   0  0  0  0  0  0  0  0  0  0  0  0
    1.3634    6.6954    0.0000 C   0  0  0  0  0  0  0  0  0  0  0  0
    2.6624    7.4454    0.0000 C   0  0  0  0  0  0  0  0  0  0  0  0
    3.9615    6.6954    0.0000 C   0  0  0  0  0  0  0  0  0  0  0  0
    3.9615    5.1954    0.0000 C   0  0  0  0  0  0  0  0  0  0  0  0
  1  2  1  0  0  0  0
  1  6  2  0  0  0  0
  2  3  2  0  0  0  0
  3  4  1  0  0  0  0
  4  5  2  0  0  0  0
  5  6  1  0  0  0  0
  5 11  1  0  0  0  0
  6  7  1  0  0  0  0
  7  8  2  0  0  0  0
  7  9  1  0  0  0  0
  9 10  2  0  0  0  0
 10 11  1  0  0  0  0
  1 12  1  0  0  0  0
  2 13  1  0  0  0  0
  3 14  1  0  0  0  0
 15 16  1  0  0  0  0
 16 17  1  0  0  0  0
 16 18  1  0  0  0  0
 18 19  2  0  0  0  0
 18 20  1  0  0  0  0
 20 21  1  0  0  0  0
 21 22  1  0  0  0  0
 22 23  2  0  0  0  0
 22 24  1  0  0  0  0
  4 20  1  0  0  0  0
  9 25  1  0  0  0  0
 26 27  1  0  0  0  0
 26 31  2  0  0  0  0
 27 28  2  0  0  0  0
 28 29  1  0  0  0  0
 29 30  2  0  0  0  0
 30 31  1  0  0  0  0
 10 26  1  0  0  0  0
M  END
> <score_KierFlex>
0.50005

$$$$
suggested molecule #276
 MOE2019            2D

 38 40  0  0  0  0  0  0  0  0999 V2000
    2.6624   -1.5546    0.0000 C   0  0  0  0  0  0  0  0  0  1  0  0
    3.9615   -2.3046    0.0000 C   0  0  0  0  0  0  0  0  0  2  0  0
    5.2605   -1.5546    0.0000 C   0  0  0  0  0  0  0  0  0  3  0  0
    5.2605   -0.0546    0.0000 C   0  0  0  0  0  0  0  0  0  4  0  0
    3.9615    0.6954    0.0000 C   0  0  0  0  0  0  0  0  0  5  0  0
    2.6624   -0.0546    0.0000 C   0  0  0  0  0  0  0  0  0  6  0  0
    1.3634    0.6954    0.0000 C   0  0  0  0  0  0  0  0  0  7  0  0
    0.0644   -0.0546    0.0000 O   0  0  0  0  0  0  0  0  0  8  0  0
    1.3634    2.1954    0.0000 C   0  0  0  0  0  0  0  0  0  9  0  0
    2.6624    2.9454    0.0000 C   0  0  0  0  0  0  0  0  0 10  0  0
    3.9615    2.1954    0.0000 O   0  0  0  0  0  0  0  0  0 11  0  0
    1.6232   -2.1546    0.0000 H   0  0  0  0  0  0  0  0  0  0  0  0
    3.9615   -3.8046    0.0000 O   0  0  0  0  0  0  0  0  0  0  0  0
    6.2997   -2.1546    0.0000 H   0  0  0  0  0  0  0  0  0  0  0  0
   10.4567    4.4454    0.0000 C   0  0  0  0  0  0  0  0  0  0  0  0
    9.1576    5.1954    0.0000 C   0  0  0  0  0  0  0  0  0  0  0  0
    7.8586    4.4454    0.0000 C   0  0  0  0  0  0  0  0  0  0  0  0
    6.5595    5.1954    0.0000 C   0  0  0  0  0  0  0  0  0  0  0  0
    7.8586    2.9454    0.0000 C   0  0  0  0  0  0  0  0  0  0  0  0
    9.1576    2.1954    0.0000 O   0  0  0  0  0  0  0  0  0  0  0  0
    6.5595    2.1954    0.0000 O   0  0  0  0  0  0  0  0  0  0  0  0
    6.5595    0.6954    0.0000 C   0  0  0  0  0  0  0  0  0  0  0  0
    7.8586   -0.0546    0.0000 C   0  0  0  0  0  0  0  0  0  0  0  0
    7.8586   -1.5546    0.0000 C   0  0  0  0  0  0  0  0  0  0  0  0
    9.3586   -1.5546    0.0000 O   0  0  0  0  0  0  0  0  0  0  0  0
    7.8586   -3.0546    0.0000 C   0  0  0  0  0  0  0  0  0  0  0  0
    6.3586   -1.5546    0.0000 C   0  0  0  0  0  0  0  0  0  0  0  0
    9.1576    0.6954    0.0000 O   0  0  0  0  0  0  0  0  0  0  0  0
   10.4567   -0.0546    0.0000 C   0  0  0  0  0  0  0  0  0  0  0  0
   10.4567   -1.5546    0.0000 O   0  0  0  0  0  0  0  0  0  0  0  0
   11.7557    0.6954    0.0000 C   0  0  0  0  0  0  0  0  0  0  0  0
    0.3242    2.7954    0.0000 H   0  0  0  0  0  0  0  0  0  0  0  0
    2.6624    4.4454    0.0000 C   0  0  0  0  0  0  0  0  0  0  0  0
    1.3634    5.1954    0.0000 C   0  0  0  0  0  0  0  0  0  0  0  0
    1.3634    6.6954    0.0000 C   0  0  0  0  0  0  0  0  0  0  0  0
    2.6624    7.4454    0.0000 C   0  0  0  0  0  0  0  0  0  0  0  0
    3.9615    6.6954    0.0000 C   0  0  0  0  0  0  0  0  0  0  0  0
    3.9615    5.1954    0.0000 C   0  0  0  0  0  0  0  0  0  0  0  0
  1  2  2  0  0  0  0
  1  6  1  0  0  0  0
  2  3  1  0  0  0  0
  3  4  2  0  0  0  0
  4  5  1  0  0  0  0
  5  6  2  0  0  0  0
  5 11  1  0  0  0  0
  6  7  1  0  0  0  0
  7  8  2  0  0  0  0
  7  9  1  0  0  0  0
  9 10  2  0  0  0  0
 10 11  1  0  0  0  0
  1 12  1  0  0  0  0
  2 13  1  0  0  0  0
  3 14  1  0  0  0  0
 15 16  1  0  0  0  0
 16 17  2  0  0  0  0
 17 18  1  0  0  0  0
 17 19  1  0  0  0  0
 19 20  2  0  0  0  0
 19 21  1  0  0  0  0
 21 22  1  0  0  0  0
 22 23  1  0  0  0  0
 23 24  1  0  0  0  0
 23 28  1  0  0  0  0
 24 25  1  0  0  0  0
 24 26  1  0  0  0  0
 24 27  1  0  0  0  0
 28 29  1  0  0  0  0
 29 30  2  0  0  0  0
 29 31  1  0  0  0  0
  4 22  1  0  0  0  0
  9 32  1  0  0  0  0
 33 34  1  0  0  0  0
 33 38  2  0  0  0  0
 34 35  2  0  0  0  0
 35 36  1  0  0  0  0
 36 37  2  0  0  0  0
 37 38  1  0  0  0  0
 10 33  1  0  0  0  0
M  END
> <score_KierA3>
0.50029

$$$$
suggested molecule #277
 MOE2019            2D

 38 40  0  0  0  0  0  0  0  0999 V2000
    2.6624   -1.5546    0.0000 C   0  0  0  0  0  0  0  0  0  1  0  0
    3.9615   -2.3046    0.0000 C   0  0  0  0  0  0  0  0  0  2  0  0
    5.2605   -1.5546    0.0000 C   0  0  0  0  0  0  0  0  0  3  0  0
    5.2605   -0.0546    0.0000 C   0  0  0  0  0  0  0  0  0  4  0  0
    3.9615    0.6954    0.0000 C   0  0  0  0  0  0  0  0  0  5  0  0
    2.6624   -0.0546    0.0000 C   0  0  0  0  0  0  0  0  0  6  0  0
    1.3634    0.6954    0.0000 C   0  0  0  0  0  0  0  0  0  7  0  0
    0.0644   -0.0546    0.0000 O   0  0  0  0  0  0  0  0  0  8  0  0
    1.3634    2.1954    0.0000 C   0  0  0  0  0  0  0  0  0  9  0  0
    2.6624    2.9454    0.0000 C   0  0  0  0  0  0  0  0  0 10  0  0
    3.9615    2.1954    0.0000 O   0  0  0  0  0  0  0  0  0 11  0  0
    1.6232   -2.1546    0.0000 H   0  0  0  0  0  0  0  0  0  0  0  0
    3.9615   -3.8046    0.0000 O   0  0  0  0  0  0  0  0  0  0  0  0
    6.2997   -2.1546    0.0000 H   0  0  0  0  0  0  0  0  0  0  0  0
   10.4567    4.4454    0.0000 C   0  0  0  0  0  0  0  0  0  0  0  0
    9.1576    5.1954    0.0000 C   0  0  0  0  0  0  0  0  0  0  0  0
    7.8586    4.4454    0.0000 C   0  0  0  0  0  0  0  0  0  0  0  0
    6.5595    5.1954    0.0000 C   0  0  0  0  0  0  0  0  0  0  0  0
    7.8586    2.9454    0.0000 C   0  0  0  0  0  0  0  0  0  0  0  0
    9.1576    2.1954    0.0000 O   0  0  0  0  0  0  0  0  0  0  0  0
    6.5595    2.1954    0.0000 O   0  0  0  0  0  0  0  0  0  0  0  0
    6.5595    0.6954    0.0000 C   0  0  0  0  0  0  0  0  0  0  0  0
    7.8586   -0.0546    0.0000 C   0  0  0  0  0  0  0  0  0  0  0  0
    7.8586   -1.5546    0.0000 C   0  0  0  0  0  0  0  0  0  0  0  0
    9.3586   -1.5546    0.0000 O   0  0  0  0  0  0  0  0  0  0  0  0
    7.8586   -3.0546    0.0000 C   0  0  0  0  0  0  0  0  0  0  0  0
    6.3586   -1.5546    0.0000 C   0  0  0  0  0  0  0  0  0  0  0  0
    9.1576    0.6954    0.0000 O   0  0  0  0  0  0  0  0  0  0  0  0
   10.4567   -0.0546    0.0000 C   0  0  0  0  0  0  0  0  0  0  0  0
   10.4567   -1.5546    0.0000 O   0  0  0  0  0  0  0  0  0  0  0  0
   11.7557    0.6954    0.0000 C   0  0  0  0  0  0  0  0  0  0  0  0
    0.3242    2.7954    0.0000 H   0  0  0  0  0  0  0  0  0  0  0  0
    2.6624    4.4454    0.0000 C   0  0  0  0  0  0  0  0  0  0  0  0
    1.3634    5.1954    0.0000 C   0  0  0  0  0  0  0  0  0  0  0  0
    1.3634    6.6954    0.0000 C   0  0  0  0  0  0  0  0  0  0  0  0
    2.6624    7.4454    0.0000 C   0  0  0  0  0  0  0  0  0  0  0  0
    3.9615    6.6954    0.0000 C   0  0  0  0  0  0  0  0  0  0  0  0
    3.9615    5.1954    0.0000 C   0  0  0  0  0  0  0  0  0  0  0  0
  1  2  2  0  0  0  0
  1  6  1  0  0  0  0
  2  3  1  0  0  0  0
  3  4  2  0  0  0  0
  4  5  1  0  0  0  0
  5  6  2  0  0  0  0
  5 11  1  0  0  0  0
  6  7  1  0  0  0  0
  7  8  2  0  0  0  0
  7  9  1  0  0  0  0
  9 10  2  0  0  0  0
 10 11  1  0  0  0  0
  1 12  1  0  0  0  0
  2 13  1  0  0  0  0
  3 14  1  0  0  0  0
 15 16  1  0  0  0  0
 16 17  2  0  0  0  0
 17 18  1  0  0  0  0
 17 19  1  0  0  0  0
 19 20  2  0  0  0  0
 19 21  1  0  0  0  0
 21 22  1  0  0  0  0
 22 23  1  0  0  0  0
 23 24  1  0  0  0  0
 23 28  1  0  0  0  0
 24 25  1  0  0  0  0
 24 26  1  0  0  0  0
 24 27  1  0  0  0  0
 28 29  1  0  0  0  0
 29 30  2  0  0  0  0
 29 31  1  0  0  0  0
  4 22  1  0  0  0  0
  9 32  1  0  0  0  0
 33 34  1  0  0  0  0
 33 38  2  0  0  0  0
 34 35  2  0  0  0  0
 35 36  1  0  0  0  0
 36 37  2  0  0  0  0
 37 38  1  0  0  0  0
 10 33  1  0  0  0  0
M  END
> <score_KierFlex>
0.500047

$$$$
suggested molecule #278
 MOE2019            2D

 38 40  0  0  1  0  0  0  0  0999 V2000
    2.6624   -1.5546    0.0000 C   0  0  0  0  0  0  0  0  0  1  0  0
    3.9615   -2.3046    0.0000 C   0  0  0  0  0  0  0  0  0  2  0  0
    5.2605   -1.5546    0.0000 C   0  0  0  0  0  0  0  0  0  3  0  0
    5.2605   -0.0546    0.0000 C   0  0  0  0  0  0  0  0  0  4  0  0
    3.9615    0.6954    0.0000 C   0  0  0  0  0  0  0  0  0  5  0  0
    2.6624   -0.0546    0.0000 C   0  0  0  0  0  0  0  0  0  6  0  0
    1.3634    0.6954    0.0000 C   0  0  0  0  0  0  0  0  0  7  0  0
    0.0644   -0.0546    0.0000 O   0  0  0  0  0  0  0  0  0  8  0  0
    1.3634    2.1954    0.0000 C   0  0  0  0  0  0  0  0  0  9  0  0
    2.6624    2.9454    0.0000 C   0  0  0  0  0  0  0  0  0 10  0  0
    3.9615    2.1954    0.0000 O   0  0  0  0  0  0  0  0  0 11  0  0
    1.6232   -2.1546    0.0000 H   0  0  0  0  0  0  0  0  0  0  0  0
    3.9615   -3.8046    0.0000 O   0  0  0  0  0  0  0  0  0  0  0  0
    6.2997   -2.1546    0.0000 H   0  0  0  0  0  0  0  0  0  0  0  0
   11.7557   -3.8046    0.0000 C   0  0  0  0  0  0  0  0  0  0  0  0
   11.7557   -2.3046    0.0000 C   0  0  0  0  0  0  0  0  0  0  0  0
   10.4567   -1.5546    0.0000 C   0  0  0  0  0  0  0  0  0  0  0  0
   10.4567   -0.0546    0.0000 C   0  0  0  0  0  0  0  0  0  0  0  0
   11.7557    0.6954    0.0000 O   0  0  0  0  0  0  0  0  0  0  0  0
    9.1576    0.6954    0.0000 O   0  0  0  0  0  0  0  0  0  0  0  0
    7.8586   -0.0546    0.0000 C   0  0  2  0  0  0  0  0  0  0  0  0
    6.5595    0.6954    0.0000 C   0  0  0  0  0  0  0  0  0  0  0  0
    6.3586   -1.5546    0.0000 O   0  0  0  0  0  0  0  0  0  0  0  0
    7.8586   -1.5546    0.0000 C   0  0  0  0  0  0  0  0  0  0  0  0
    9.3586   -1.5546    0.0000 C   0  0  0  0  0  0  0  0  0  0  0  0
    7.8586   -3.0546    0.0000 C   0  0  0  0  0  0  0  0  0  0  0  0
    6.5595    2.1954    0.0000 O   0  0  0  0  0  0  0  0  0  0  0  0
    7.8586    2.9454    0.0000 C   0  0  0  0  0  0  0  0  0  0  0  0
    7.8586    4.4454    0.0000 O   0  0  0  0  0  0  0  0  0  0  0  0
    9.1576    2.1954    0.0000 C   0  0  0  0  0  0  0  0  0  0  0  0
   13.0547   -1.5546    0.0000 C   0  0  0  0  0  0  0  0  0  0  0  0
    0.3242    2.7954    0.0000 H   0  0  0  0  0  0  0  0  0  0  0  0
    2.6624    4.4454    0.0000 C   0  0  0  0  0  0  0  0  0  0  0  0
    3.9615    5.1954    0.0000 C   0  0  0  0  0  0  0  0  0  0  0  0
    3.9615    6.6954    0.0000 C   0  0  0  0  0  0  0  0  0  0  0  0
    2.6624    7.4454    0.0000 C   0  0  0  0  0  0  0  0  0  0  0  0
    1.3634    6.6954    0.0000 C   0  0  0  0  0  0  0  0  0  0  0  0
    1.3634    5.1954    0.0000 C   0  0  0  0  0  0  0  0  0  0  0  0
  1  2  2  0  0  0  0
  1  6  1  0  0  0  0
  2  3  1  0  0  0  0
  3  4  2  0  0  0  0
  4  5  1  0  0  0  0
  5  6  2  0  0  0  0
  5 11  1  0  0  0  0
  6  7  1  0  0  0  0
  7  8  2  0  0  0  0
  7  9  1  0  0  0  0
  9 10  2  0  0  0  0
 10 11  1  0  0  0  0
  1 12  1  0  0  0  0
  2 13  1  0  0  0  0
  3 14  1  0  0  0  0
 15 16  1  0  0  0  0
 16 17  2  0  0  0  0
 16 31  1  0  0  0  0
 17 18  1  0  0  0  0
 18 19  2  0  0  0  0
 18 20  1  0  0  0  0
 21 20  1  1  0  0  0
 21 22  1  0  0  0  0
 21 24  1  0  0  0  0
 22 27  1  0  0  0  0
 23 24  1  0  0  0  0
 24 25  1  0  0  0  0
 24 26  1  0  0  0  0
 27 28  1  0  0  0  0
 28 29  2  0  0  0  0
 28 30  1  0  0  0  0
  4 22  1  0  0  0  0
  9 32  1  0  0  0  0
 33 34  1  0  0  0  0
 33 38  2  0  0  0  0
 34 35  2  0  0  0  0
 35 36  1  0  0  0  0
 36 37  2  0  0  0  0
 37 38  1  0  0  0  0
 10 33  1  0  0  0  0
M  END
> <score_KierA3>
0.500288

$$$$
suggested molecule #279
 MOE2019            2D

 38 40  0  0  1  0  0  0  0  0999 V2000
    2.6624   -1.5546    0.0000 C   0  0  0  0  0  0  0  0  0  1  0  0
    3.9615   -2.3046    0.0000 C   0  0  0  0  0  0  0  0  0  2  0  0
    5.2605   -1.5546    0.0000 C   0  0  0  0  0  0  0  0  0  3  0  0
    5.2605   -0.0546    0.0000 C   0  0  0  0  0  0  0  0  0  4  0  0
    3.9615    0.6954    0.0000 C   0  0  0  0  0  0  0  0  0  5  0  0
    2.6624   -0.0546    0.0000 C   0  0  0  0  0  0  0  0  0  6  0  0
    1.3634    0.6954    0.0000 C   0  0  0  0  0  0  0  0  0  7  0  0
    0.0644   -0.0546    0.0000 O   0  0  0  0  0  0  0  0  0  8  0  0
    1.3634    2.1954    0.0000 C   0  0  0  0  0  0  0  0  0  9  0  0
    2.6624    2.9454    0.0000 C   0  0  0  0  0  0  0  0  0 10  0  0
    3.9615    2.1954    0.0000 O   0  0  0  0  0  0  0  0  0 11  0  0
    1.6232   -2.1546    0.0000 H   0  0  0  0  0  0  0  0  0  0  0  0
    3.9615   -3.8046    0.0000 O   0  0  0  0  0  0  0  0  0  0  0  0
    6.2997   -2.1546    0.0000 H   0  0  0  0  0  0  0  0  0  0  0  0
   11.7557   -3.8046    0.0000 C   0  0  0  0  0  0  0  0  0  0  0  0
   11.7557   -2.3046    0.0000 C   0  0  0  0  0  0  0  0  0  0  0  0
   10.4567   -1.5546    0.0000 C   0  0  0  0  0  0  0  0  0  0  0  0
   10.4567   -0.0546    0.0000 C   0  0  0  0  0  0  0  0  0  0  0  0
   11.7557    0.6954    0.0000 O   0  0  0  0  0  0  0  0  0  0  0  0
    9.1576    0.6954    0.0000 O   0  0  0  0  0  0  0  0  0  0  0  0
    7.8586   -0.0546    0.0000 C   0  0  2  0  0  0  0  0  0  0  0  0
    6.5595    0.6954    0.0000 C   0  0  0  0  0  0  0  0  0  0  0  0
    6.3586   -1.5546    0.0000 O   0  0  0  0  0  0  0  0  0  0  0  0
    7.8586   -1.5546    0.0000 C   0  0  0  0  0  0  0  0  0  0  0  0
    9.3586   -1.5546    0.0000 C   0  0  0  0  0  0  0  0  0  0  0  0
    7.8586   -3.0546    0.0000 C   0  0  0  0  0  0  0  0  0  0  0  0
    6.5595    2.1954    0.0000 O   0  0  0  0  0  0  0  0  0  0  0  0
    7.8586    2.9454    0.0000 C   0  0  0  0  0  0  0  0  0  0  0  0
    7.8586    4.4454    0.0000 O   0  0  0  0  0  0  0  0  0  0  0  0
    9.1576    2.1954    0.0000 C   0  0  0  0  0  0  0  0  0  0  0  0
   13.0547   -1.5546    0.0000 C   0  0  0  0  0  0  0  0  0  0  0  0
    0.3242    2.7954    0.0000 H   0  0  0  0  0  0  0  0  0  0  0  0
    2.6624    4.4454    0.0000 C   0  0  0  0  0  0  0  0  0  0  0  0
    3.9615    5.1954    0.0000 C   0  0  0  0  0  0  0  0  0  0  0  0
    3.9615    6.6954    0.0000 C   0  0  0  0  0  0  0  0  0  0  0  0
    2.6624    7.4454    0.0000 C   0  0  0  0  0  0  0  0  0  0  0  0
    1.3634    6.6954    0.0000 C   0  0  0  0  0  0  0  0  0  0  0  0
    1.3634    5.1954    0.0000 C   0  0  0  0  0  0  0  0  0  0  0  0
  1  2  2  0  0  0  0
  1  6  1  0  0  0  0
  2  3  1  0  0  0  0
  3  4  2  0  0  0  0
  4  5  1  0  0  0  0
  5  6  2  0  0  0  0
  5 11  1  0  0  0  0
  6  7  1  0  0  0  0
  7  8  2  0  0  0  0
  7  9  1  0  0  0  0
  9 10  2  0  0  0  0
 10 11  1  0  0  0  0
  1 12  1  0  0  0  0
  2 13  1  0  0  0  0
  3 14  1  0  0  0  0
 15 16  1  0  0  0  0
 16 17  2  0  0  0  0
 16 31  1  0  0  0  0
 17 18  1  0  0  0  0
 18 19  2  0  0  0  0
 18 20  1  0  0  0  0
 21 20  1  1  0  0  0
 21 22  1  0  0  0  0
 21 24  1  0  0  0  0
 22 27  1  0  0  0  0
 23 24  1  0  0  0  0
 24 25  1  0  0  0  0
 24 26  1  0  0  0  0
 27 28  1  0  0  0  0
 28 29  2  0  0  0  0
 28 30  1  0  0  0  0
  4 22  1  0  0  0  0
  9 32  1  0  0  0  0
 33 34  1  0  0  0  0
 33 38  2  0  0  0  0
 34 35  2  0  0  0  0
 35 36  1  0  0  0  0
 36 37  2  0  0  0  0
 37 38  1  0  0  0  0
 10 33  1  0  0  0  0
M  END
> <score_KierFlex>
0.500047

$$$$
suggested molecule #280
 MOE2019            2D

 38 40  0  0  0  0  0  0  0  0999 V2000
    2.6624   -1.5546    0.0000 C   0  0  0  0  0  0  0  0  0  1  0  0
    3.9615   -2.3046    0.0000 C   0  0  0  0  0  0  0  0  0  2  0  0
    5.2605   -1.5546    0.0000 C   0  0  0  0  0  0  0  0  0  3  0  0
    5.2605   -0.0546    0.0000 C   0  0  0  0  0  0  0  0  0  4  0  0
    3.9615    0.6954    0.0000 C   0  0  0  0  0  0  0  0  0  5  0  0
    2.6624   -0.0546    0.0000 C   0  0  0  0  0  0  0  0  0  6  0  0
    1.3634    0.6954    0.0000 C   0  0  0  0  0  0  0  0  0  7  0  0
    0.0644   -0.0546    0.0000 O   0  0  0  0  0  0  0  0  0  8  0  0
    1.3634    2.1954    0.0000 C   0  0  0  0  0  0  0  0  0  9  0  0
    2.6624    2.9454    0.0000 C   0  0  0  0  0  0  0  0  0 10  0  0
    3.9615    2.1954    0.0000 O   0  0  0  0  0  0  0  0  0 11  0  0
    1.6232   -2.1546    0.0000 H   0  0  0  0  0  0  0  0  0  0  0  0
    3.9615   -3.8046    0.0000 O   0  0  0  0  0  0  0  0  0  0  0  0
    6.2997   -2.1546    0.0000 H   0  0  0  0  0  0  0  0  0  0  0  0
   13.0547   -1.5546    0.0000 C   0  0  0  0  0  0  0  0  0  0  0  0
   13.0547   -0.0546    0.0000 C   0  0  0  0  0  0  0  0  0  0  0  0
   11.7557    0.6954    0.0000 C   0  0  0  0  0  0  0  0  0  0  0  0
   11.7557    2.1954    0.0000 C   0  0  0  0  0  0  0  0  0  0  0  0
   10.4567   -0.0546    0.0000 C   0  0  0  0  0  0  0  0  0  0  0  0
   10.4567   -1.5546    0.0000 O   0  0  0  0  0  0  0  0  0  0  0  0
    9.1576    0.6954    0.0000 O   0  0  0  0  0  0  0  0  0  0  0  0
    7.8586   -0.0546    0.0000 C   0  0  0  0  0  0  0  0  0  0  0  0
    6.5595    0.6954    0.0000 C   0  0  0  0  0  0  0  0  0  0  0  0
    7.8586   -3.0546    0.0000 O   0  0  0  0  0  0  0  0  0  0  0  0
    7.8586   -1.5546    0.0000 C   0  0  0  0  0  0  0  0  0  0  0  0
    9.3586   -1.5546    0.0000 C   0  0  0  0  0  0  0  0  0  0  0  0
    6.3586   -1.5546    0.0000 C   0  0  0  0  0  0  0  0  0  0  0  0
    6.5595    2.1954    0.0000 O   0  0  0  0  0  0  0  0  0  0  0  0
    7.8586    2.9454    0.0000 C   0  0  0  0  0  0  0  0  0  0  0  0
    7.8586    4.4454    0.0000 O   0  0  0  0  0  0  0  0  0  0  0  0
    9.1576    2.1954    0.0000 C   0  0  0  0  0  0  0  0  0  0  0  0
    0.3242    2.7954    0.0000 H   0  0  0  0  0  0  0  0  0  0  0  0
    2.6624    4.4454    0.0000 C   0  0  0  0  0  0  0  0  0  0  0  0
    1.3634    5.1954    0.0000 C   0  0  0  0  0  0  0  0  0  0  0  0
    1.3634    6.6954    0.0000 C   0  0  0  0  0  0  0  0  0  0  0  0
    2.6624    7.4454    0.0000 C   0  0  0  0  0  0  0  0  0  0  0  0
    3.9615    6.6954    0.0000 C   0  0  0  0  0  0  0  0  0  0  0  0
    3.9615    5.1954    0.0000 C   0  0  0  0  0  0  0  0  0  0  0  0
  1  2  2  0  0  0  0
  1  6  1  0  0  0  0
  2  3  1  0  0  0  0
  3  4  2  0  0  0  0
  4  5  1  0  0  0  0
  5  6  2  0  0  0  0
  5 11  1  0  0  0  0
  6  7  1  0  0  0  0
  7  8  2  0  0  0  0
  7  9  1  0  0  0  0
  9 10  2  0  0  0  0
 10 11  1  0  0  0  0
  1 12  1  0  0  0  0
  2 13  1  0  0  0  0
  3 14  1  0  0  0  0
 15 16  1  0  0  0  0
 16 17  2  0  0  0  0
 17 18  1  0  0  0  0
 17 19  1  0  0  0  0
 19 20  2  0  0  0  0
 19 21  1  0  0  0  0
 21 22  1  0  0  0  0
 22 23  1  0  0  0  0
 22 25  1  0  0  0  0
 23 28  1  0  0  0  0
 24 25  1  0  0  0  0
 25 26  1  0  0  0  0
 25 27  1  0  0  0  0
 28 29  1  0  0  0  0
 29 30  2  0  0  0  0
 29 31  1  0  0  0  0
  4 23  1  0  0  0  0
  9 32  1  0  0  0  0
 33 34  1  0  0  0  0
 33 38  2  0  0  0  0
 34 35  2  0  0  0  0
 35 36  1  0  0  0  0
 36 37  2  0  0  0  0
 37 38  1  0  0  0  0
 10 33  1  0  0  0  0
M  END
> <score_KierA3>
0.50029

$$$$
suggested molecule #281
 MOE2019            2D

 38 40  0  0  0  0  0  0  0  0999 V2000
    2.6624   -1.5546    0.0000 C   0  0  0  0  0  0  0  0  0  1  0  0
    3.9615   -2.3046    0.0000 C   0  0  0  0  0  0  0  0  0  2  0  0
    5.2605   -1.5546    0.0000 C   0  0  0  0  0  0  0  0  0  3  0  0
    5.2605   -0.0546    0.0000 C   0  0  0  0  0  0  0  0  0  4  0  0
    3.9615    0.6954    0.0000 C   0  0  0  0  0  0  0  0  0  5  0  0
    2.6624   -0.0546    0.0000 C   0  0  0  0  0  0  0  0  0  6  0  0
    1.3634    0.6954    0.0000 C   0  0  0  0  0  0  0  0  0  7  0  0
    0.0644   -0.0546    0.0000 O   0  0  0  0  0  0  0  0  0  8  0  0
    1.3634    2.1954    0.0000 C   0  0  0  0  0  0  0  0  0  9  0  0
    2.6624    2.9454    0.0000 C   0  0  0  0  0  0  0  0  0 10  0  0
    3.9615    2.1954    0.0000 O   0  0  0  0  0  0  0  0  0 11  0  0
    1.6232   -2.1546    0.0000 H   0  0  0  0  0  0  0  0  0  0  0  0
    3.9615   -3.8046    0.0000 O   0  0  0  0  0  0  0  0  0  0  0  0
    6.2997   -2.1546    0.0000 H   0  0  0  0  0  0  0  0  0  0  0  0
   13.0547   -1.5546    0.0000 C   0  0  0  0  0  0  0  0  0  0  0  0
   13.0547   -0.0546    0.0000 C   0  0  0  0  0  0  0  0  0  0  0  0
   11.7557    0.6954    0.0000 C   0  0  0  0  0  0  0  0  0  0  0  0
   11.7557    2.1954    0.0000 C   0  0  0  0  0  0  0  0  0  0  0  0
   10.4567   -0.0546    0.0000 C   0  0  0  0  0  0  0  0  0  0  0  0
   10.4567   -1.5546    0.0000 O   0  0  0  0  0  0  0  0  0  0  0  0
    9.1576    0.6954    0.0000 O   0  0  0  0  0  0  0  0  0  0  0  0
    7.8586   -0.0546    0.0000 C   0  0  0  0  0  0  0  0  0  0  0  0
    6.5595    0.6954    0.0000 C   0  0  0  0  0  0  0  0  0  0  0  0
    7.8586   -3.0546    0.0000 O   0  0  0  0  0  0  0  0  0  0  0  0
    7.8586   -1.5546    0.0000 C   0  0  0  0  0  0  0  0  0  0  0  0
    9.3586   -1.5546    0.0000 C   0  0  0  0  0  0  0  0  0  0  0  0
    6.3586   -1.5546    0.0000 C   0  0  0  0  0  0  0  0  0  0  0  0
    6.5595    2.1954    0.0000 O   0  0  0  0  0  0  0  0  0  0  0  0
    7.8586    2.9454    0.0000 C   0  0  0  0  0  0  0  0  0  0  0  0
    7.8586    4.4454    0.0000 O   0  0  0  0  0  0  0  0  0  0  0  0
    9.1576    2.1954    0.0000 C   0  0  0  0  0  0  0  0  0  0  0  0
    0.3242    2.7954    0.0000 H   0  0  0  0  0  0  0  0  0  0  0  0
    2.6624    4.4454    0.0000 C   0  0  0  0  0  0  0  0  0  0  0  0
    1.3634    5.1954    0.0000 C   0  0  0  0  0  0  0  0  0  0  0  0
    1.3634    6.6954    0.0000 C   0  0  0  0  0  0  0  0  0  0  0  0
    2.6624    7.4454    0.0000 C   0  0  0  0  0  0  0  0  0  0  0  0
    3.9615    6.6954    0.0000 C   0  0  0  0  0  0  0  0  0  0  0  0
    3.9615    5.1954    0.0000 C   0  0  0  0  0  0  0  0  0  0  0  0
  1  2  2  0  0  0  0
  1  6  1  0  0  0  0
  2  3  1  0  0  0  0
  3  4  2  0  0  0  0
  4  5  1  0  0  0  0
  5  6  2  0  0  0  0
  5 11  1  0  0  0  0
  6  7  1  0  0  0  0
  7  8  2  0  0  0  0
  7  9  1  0  0  0  0
  9 10  2  0  0  0  0
 10 11  1  0  0  0  0
  1 12  1  0  0  0  0
  2 13  1  0  0  0  0
  3 14  1  0  0  0  0
 15 16  1  0  0  0  0
 16 17  2  0  0  0  0
 17 18  1  0  0  0  0
 17 19  1  0  0  0  0
 19 20  2  0  0  0  0
 19 21  1  0  0  0  0
 21 22  1  0  0  0  0
 22 23  1  0  0  0  0
 22 25  1  0  0  0  0
 23 28  1  0  0  0  0
 24 25  1  0  0  0  0
 25 26  1  0  0  0  0
 25 27  1  0  0  0  0
 28 29  1  0  0  0  0
 29 30  2  0  0  0  0
 29 31  1  0  0  0  0
  4 23  1  0  0  0  0
  9 32  1  0  0  0  0
 33 34  1  0  0  0  0
 33 38  2  0  0  0  0
 34 35  2  0  0  0  0
 35 36  1  0  0  0  0
 36 37  2  0  0  0  0
 37 38  1  0  0  0  0
 10 33  1  0  0  0  0
M  END
> <score_KierFlex>
0.500047

$$$$
suggested molecule #282
 MOE2019            2D

 26 28  0  0  0  0  0  0  0  0999 V2000
    2.6624   -1.5546    0.0000 C   0  0  0  0  0  0  0  0  0  1  0  0
    3.9615   -2.3046    0.0000 C   0  0  0  0  0  0  0  0  0  2  0  0
    5.2605   -1.5546    0.0000 C   0  0  0  0  0  0  0  0  0  3  0  0
    5.2605   -0.0546    0.0000 C   0  0  0  0  0  0  0  0  0  4  0  0
    3.9615    0.6954    0.0000 C   0  0  0  0  0  0  0  0  0  5  0  0
    2.6624   -0.0546    0.0000 C   0  0  0  0  0  0  0  0  0  6  0  0
    1.3634    0.6954    0.0000 C   0  0  0  0  0  0  0  0  0  7  0  0
    0.0644   -0.0546    0.0000 O   0  0  0  0  0  0  0  0  0  8  0  0
    1.3634    2.1954    0.0000 C   0  0  0  0  0  0  0  0  0  9  0  0
    2.6624    2.9454    0.0000 C   0  0  0  0  0  0  0  0  0 10  0  0
    3.9615    2.1954    0.0000 O   0  0  0  0  0  0  0  0  0 11  0  0
    1.6232   -2.1546    0.0000 H   0  0  0  0  0  0  0  0  0  0  0  0
    3.9615   -3.8046    0.0000 O   0  0  0  0  0  0  0  0  0  0  0  0
    6.2997   -2.1546    0.0000 H   0  0  0  0  0  0  0  0  0  0  0  0
    6.5595    0.6954    0.0000 C   0  0  0  0  0  0  0  0  0  0  0  0
    5.8095    1.9944    0.0000 C   0  0  0  0  0  0  0  0  0  0  0  0
    7.3095   -0.6036    0.0000 C   0  0  0  0  0  0  0  0  0  0  0  0
    7.8586    1.4454    0.0000 C   0  0  0  0  0  0  0  0  0  0  0  0
    9.1576    0.6954    0.0000 C   0  0  0  0  0  0  0  0  0  0  0  0
    0.3242    2.7954    0.0000 H   0  0  0  0  0  0  0  0  0  0  0  0
    2.6624    4.4454    0.0000 C   0  0  0  0  0  0  0  0  0  0  0  0
    1.3634    5.1954    0.0000 C   0  0  0  0  0  0  0  0  0  0  0  0
    1.3634    6.6954    0.0000 C   0  0  0  0  0  0  0  0  0  0  0  0
    2.6624    7.4454    0.0000 C   0  0  0  0  0  0  0  0  0  0  0  0
    3.9615    6.6954    0.0000 C   0  0  0  0  0  0  0  0  0  0  0  0
    3.9615    5.1954    0.0000 C   0  0  0  0  0  0  0  0  0  0  0  0
  1  2  1  0  0  0  0
  1  6  2  0  0  0  0
  2  3  2  0  0  0  0
  3  4  1  0  0  0  0
  4  5  2  0  0  0  0
  5  6  1  0  0  0  0
  5 11  1  0  0  0  0
  6  7  1  0  0  0  0
  7  8  2  0  0  0  0
  7  9  1  0  0  0  0
  9 10  2  0  0  0  0
 10 11  1  0  0  0  0
  1 12  1  0  0  0  0
  2 13  1  0  0  0  0
  3 14  1  0  0  0  0
 15 16  1  0  0  0  0
 15 17  1  0  0  0  0
 15 18  1  0  0  0  0
 18 19  2  0  0  0  0
  4 15  1  0  0  0  0
  9 20  1  0  0  0  0
 21 22  1  0  0  0  0
 21 26  2  0  0  0  0
 22 23  2  0  0  0  0
 23 24  1  0  0  0  0
 24 25  2  0  0  0  0
 25 26  1  0  0  0  0
 10 21  1  0  0  0  0
M  END
> <score_KierA3>
0.500309

$$$$
suggested molecule #283
 MOE2019            2D

 26 28  0  0  0  0  0  0  0  0999 V2000
    2.6624   -1.5546    0.0000 C   0  0  0  0  0  0  0  0  0  1  0  0
    3.9615   -2.3046    0.0000 C   0  0  0  0  0  0  0  0  0  2  0  0
    5.2605   -1.5546    0.0000 C   0  0  0  0  0  0  0  0  0  3  0  0
    5.2605   -0.0546    0.0000 C   0  0  0  0  0  0  0  0  0  4  0  0
    3.9615    0.6954    0.0000 C   0  0  0  0  0  0  0  0  0  5  0  0
    2.6624   -0.0546    0.0000 C   0  0  0  0  0  0  0  0  0  6  0  0
    1.3634    0.6954    0.0000 C   0  0  0  0  0  0  0  0  0  7  0  0
    0.0644   -0.0546    0.0000 O   0  0  0  0  0  0  0  0  0  8  0  0
    1.3634    2.1954    0.0000 C   0  0  0  0  0  0  0  0  0  9  0  0
    2.6624    2.9454    0.0000 C   0  0  0  0  0  0  0  0  0 10  0  0
    3.9615    2.1954    0.0000 O   0  0  0  0  0  0  0  0  0 11  0  0
    1.6232   -2.1546    0.0000 H   0  0  0  0  0  0  0  0  0  0  0  0
    3.9615   -3.8046    0.0000 O   0  0  0  0  0  0  0  0  0  0  0  0
    6.2997   -2.1546    0.0000 H   0  0  0  0  0  0  0  0  0  0  0  0
    6.5595    0.6954    0.0000 C   0  0  0  0  0  0  0  0  0  0  0  0
    5.8095    1.9944    0.0000 C   0  0  0  0  0  0  0  0  0  0  0  0
    7.3095   -0.6036    0.0000 C   0  0  0  0  0  0  0  0  0  0  0  0
    7.8586    1.4454    0.0000 C   0  0  0  0  0  0  0  0  0  0  0  0
    9.1576    0.6954    0.0000 C   0  0  0  0  0  0  0  0  0  0  0  0
    0.3242    2.7954    0.0000 H   0  0  0  0  0  0  0  0  0  0  0  0
    2.6624    4.4454    0.0000 C   0  0  0  0  0  0  0  0  0  0  0  0
    1.3634    5.1954    0.0000 C   0  0  0  0  0  0  0  0  0  0  0  0
    1.3634    6.6954    0.0000 C   0  0  0  0  0  0  0  0  0  0  0  0
    2.6624    7.4454    0.0000 C   0  0  0  0  0  0  0  0  0  0  0  0
    3.9615    6.6954    0.0000 C   0  0  0  0  0  0  0  0  0  0  0  0
    3.9615    5.1954    0.0000 C   0  0  0  0  0  0  0  0  0  0  0  0
  1  2  1  0  0  0  0
  1  6  2  0  0  0  0
  2  3  2  0  0  0  0
  3  4  1  0  0  0  0
  4  5  2  0  0  0  0
  5  6  1  0  0  0  0
  5 11  1  0  0  0  0
  6  7  1  0  0  0  0
  7  8  2  0  0  0  0
  7  9  1  0  0  0  0
  9 10  2  0  0  0  0
 10 11  1  0  0  0  0
  1 12  1  0  0  0  0
  2 13  1  0  0  0  0
  3 14  1  0  0  0  0
 15 16  1  0  0  0  0
 15 17  1  0  0  0  0
 15 18  1  0  0  0  0
 18 19  2  0  0  0  0
  4 15  1  0  0  0  0
  9 20  1  0  0  0  0
 21 22  1  0  0  0  0
 21 26  2  0  0  0  0
 22 23  2  0  0  0  0
 23 24  1  0  0  0  0
 24 25  2  0  0  0  0
 25 26  1  0  0  0  0
 10 21  1  0  0  0  0
M  END
> <score_KierFlex>
0.500066

$$$$
suggested molecule #284
 MOE2019            2D

 38 40  0  0  1  0  0  0  0  0999 V2000
    2.6624   -1.5546    0.0000 C   0  0  0  0  0  0  0  0  0  1  0  0
    3.9615   -2.3046    0.0000 C   0  0  0  0  0  0  0  0  0  2  0  0
    5.2605   -1.5546    0.0000 C   0  0  0  0  0  0  0  0  0  3  0  0
    5.2605   -0.0546    0.0000 C   0  0  0  0  0  0  0  0  0  4  0  0
    3.9615    0.6954    0.0000 C   0  0  0  0  0  0  0  0  0  5  0  0
    2.6624   -0.0546    0.0000 C   0  0  0  0  0  0  0  0  0  6  0  0
    1.3634    0.6954    0.0000 C   0  0  0  0  0  0  0  0  0  7  0  0
    0.0644   -0.0546    0.0000 O   0  0  0  0  0  0  0  0  0  8  0  0
    1.3634    2.1954    0.0000 C   0  0  0  0  0  0  0  0  0  9  0  0
    2.6624    2.9454    0.0000 C   0  0  0  0  0  0  0  0  0 10  0  0
    3.9615    2.1954    0.0000 O   0  0  0  0  0  0  0  0  0 11  0  0
    1.6232   -2.1546    0.0000 H   0  0  0  0  0  0  0  0  0  0  0  0
    3.9615   -3.8046    0.0000 O   0  0  0  0  0  0  0  0  0  0  0  0
    6.2997   -2.1546    0.0000 H   0  0  0  0  0  0  0  0  0  0  0  0
   13.0547    2.9454    0.0000 C   0  0  0  0  0  0  0  0  0  0  0  0
   11.7557    2.1954    0.0000 C   0  0  0  0  0  0  0  0  0  0  0  0
   11.7557    0.6954    0.0000 C   0  0  0  0  0  0  0  0  0  0  0  0
   13.0547   -0.0546    0.0000 C   0  0  0  0  0  0  0  0  0  0  0  0
   10.4567   -0.0546    0.0000 C   0  0  0  0  0  0  0  0  0  0  0  0
   10.4567   -1.5546    0.0000 O   0  0  0  0  0  0  0  0  0  0  0  0
    9.1576    0.6954    0.0000 O   0  0  0  0  0  0  0  0  0  0  0  0
    7.8586   -0.0546    0.0000 C   0  0  2  0  0  0  0  0  0  0  0  0
    6.5595    0.6954    0.0000 C   0  0  0  0  0  0  0  0  0  0  0  0
    9.3586   -1.5546    0.0000 O   0  0  0  0  0  0  0  0  0  0  0  0
    7.8586   -1.5546    0.0000 C   0  0  0  0  0  0  0  0  0  0  0  0
    7.8586   -3.0546    0.0000 C   0  0  0  0  0  0  0  0  0  0  0  0
    6.3586   -1.5546    0.0000 C   0  0  0  0  0  0  0  0  0  0  0  0
    6.5595    2.1954    0.0000 O   0  0  0  0  0  0  0  0  0  0  0  0
    7.8586    2.9454    0.0000 C   0  0  0  0  0  0  0  0  0  0  0  0
    7.8586    4.4454    0.0000 O   0  0  0  0  0  0  0  0  0  0  0  0
    9.1576    2.1954    0.0000 C   0  0  0  0  0  0  0  0  0  0  0  0
    0.3242    2.7954    0.0000 H   0  0  0  0  0  0  0  0  0  0  0  0
    2.6624    4.4454    0.0000 C   0  0  0  0  0  0  0  0  0  0  0  0
    1.3634    5.1954    0.0000 C   0  0  0  0  0  0  0  0  0  0  0  0
    1.3634    6.6954    0.0000 C   0  0  0  0  0  0  0  0  0  0  0  0
    2.6624    7.4454    0.0000 C   0  0  0  0  0  0  0  0  0  0  0  0
    3.9615    6.6954    0.0000 C   0  0  0  0  0  0  0  0  0  0  0  0
    3.9615    5.1954    0.0000 C   0  0  0  0  0  0  0  0  0  0  0  0
  1  2  2  0  0  0  0
  1  6  1  0  0  0  0
  2  3  1  0  0  0  0
  3  4  2  0  0  0  0
  4  5  1  0  0  0  0
  5  6  2  0  0  0  0
  5 11  1  0  0  0  0
  6  7  1  0  0  0  0
  7  8  2  0  0  0  0
  7  9  1  0  0  0  0
  9 10  2  0  0  0  0
 10 11  1  0  0  0  0
  1 12  1  0  0  0  0
  2 13  1  0  0  0  0
  3 14  1  0  0  0  0
 15 16  1  0  0  0  0
 16 17  1  0  0  0  0
 17 18  1  0  0  0  0
 17 19  1  0  0  0  0
 19 20  2  0  0  0  0
 19 21  1  0  0  0  0
 22 21  1  1  0  0  0
 22 23  1  0  0  0  0
 22 25  1  0  0  0  0
 23 28  1  0  0  0  0
 24 25  1  0  0  0  0
 25 26  1  0  0  0  0
 25 27  1  0  0  0  0
 28 29  1  0  0  0  0
 29 30  2  0  0  0  0
 29 31  1  0  0  0  0
  4 23  1  0  0  0  0
  9 32  1  0  0  0  0
 33 34  1  0  0  0  0
 33 38  2  0  0  0  0
 34 35  2  0  0  0  0
 35 36  1  0  0  0  0
 36 37  2  0  0  0  0
 37 38  1  0  0  0  0
 10 33  1  0  0  0  0
M  END
> <score_KierA3>
0.500289

$$$$
suggested molecule #285
 MOE2019            2D

 38 40  0  0  1  0  0  0  0  0999 V2000
    2.6624   -1.5546    0.0000 C   0  0  0  0  0  0  0  0  0  1  0  0
    3.9615   -2.3046    0.0000 C   0  0  0  0  0  0  0  0  0  2  0  0
    5.2605   -1.5546    0.0000 C   0  0  0  0  0  0  0  0  0  3  0  0
    5.2605   -0.0546    0.0000 C   0  0  0  0  0  0  0  0  0  4  0  0
    3.9615    0.6954    0.0000 C   0  0  0  0  0  0  0  0  0  5  0  0
    2.6624   -0.0546    0.0000 C   0  0  0  0  0  0  0  0  0  6  0  0
    1.3634    0.6954    0.0000 C   0  0  0  0  0  0  0  0  0  7  0  0
    0.0644   -0.0546    0.0000 O   0  0  0  0  0  0  0  0  0  8  0  0
    1.3634    2.1954    0.0000 C   0  0  0  0  0  0  0  0  0  9  0  0
    2.6624    2.9454    0.0000 C   0  0  0  0  0  0  0  0  0 10  0  0
    3.9615    2.1954    0.0000 O   0  0  0  0  0  0  0  0  0 11  0  0
    1.6232   -2.1546    0.0000 H   0  0  0  0  0  0  0  0  0  0  0  0
    3.9615   -3.8046    0.0000 O   0  0  0  0  0  0  0  0  0  0  0  0
    6.2997   -2.1546    0.0000 H   0  0  0  0  0  0  0  0  0  0  0  0
   13.0547    2.9454    0.0000 C   0  0  0  0  0  0  0  0  0  0  0  0
   11.7557    2.1954    0.0000 C   0  0  0  0  0  0  0  0  0  0  0  0
   11.7557    0.6954    0.0000 C   0  0  0  0  0  0  0  0  0  0  0  0
   13.0547   -0.0546    0.0000 C   0  0  0  0  0  0  0  0  0  0  0  0
   10.4567   -0.0546    0.0000 C   0  0  0  0  0  0  0  0  0  0  0  0
   10.4567   -1.5546    0.0000 O   0  0  0  0  0  0  0  0  0  0  0  0
    9.1576    0.6954    0.0000 O   0  0  0  0  0  0  0  0  0  0  0  0
    7.8586   -0.0546    0.0000 C   0  0  2  0  0  0  0  0  0  0  0  0
    6.5595    0.6954    0.0000 C   0  0  0  0  0  0  0  0  0  0  0  0
    9.3586   -1.5546    0.0000 O   0  0  0  0  0  0  0  0  0  0  0  0
    7.8586   -1.5546    0.0000 C   0  0  0  0  0  0  0  0  0  0  0  0
    7.8586   -3.0546    0.0000 C   0  0  0  0  0  0  0  0  0  0  0  0
    6.3586   -1.5546    0.0000 C   0  0  0  0  0  0  0  0  0  0  0  0
    6.5595    2.1954    0.0000 O   0  0  0  0  0  0  0  0  0  0  0  0
    7.8586    2.9454    0.0000 C   0  0  0  0  0  0  0  0  0  0  0  0
    7.8586    4.4454    0.0000 O   0  0  0  0  0  0  0  0  0  0  0  0
    9.1576    2.1954    0.0000 C   0  0  0  0  0  0  0  0  0  0  0  0
    0.3242    2.7954    0.0000 H   0  0  0  0  0  0  0  0  0  0  0  0
    2.6624    4.4454    0.0000 C   0  0  0  0  0  0  0  0  0  0  0  0
    1.3634    5.1954    0.0000 C   0  0  0  0  0  0  0  0  0  0  0  0
    1.3634    6.6954    0.0000 C   0  0  0  0  0  0  0  0  0  0  0  0
    2.6624    7.4454    0.0000 C   0  0  0  0  0  0  0  0  0  0  0  0
    3.9615    6.6954    0.0000 C   0  0  0  0  0  0  0  0  0  0  0  0
    3.9615    5.1954    0.0000 C   0  0  0  0  0  0  0  0  0  0  0  0
  1  2  2  0  0  0  0
  1  6  1  0  0  0  0
  2  3  1  0  0  0  0
  3  4  2  0  0  0  0
  4  5  1  0  0  0  0
  5  6  2  0  0  0  0
  5 11  1  0  0  0  0
  6  7  1  0  0  0  0
  7  8  2  0  0  0  0
  7  9  1  0  0  0  0
  9 10  2  0  0  0  0
 10 11  1  0  0  0  0
  1 12  1  0  0  0  0
  2 13  1  0  0  0  0
  3 14  1  0  0  0  0
 15 16  1  0  0  0  0
 16 17  1  0  0  0  0
 17 18  1  0  0  0  0
 17 19  1  0  0  0  0
 19 20  2  0  0  0  0
 19 21  1  0  0  0  0
 22 21  1  1  0  0  0
 22 23  1  0  0  0  0
 22 25  1  0  0  0  0
 23 28  1  0  0  0  0
 24 25  1  0  0  0  0
 25 26  1  0  0  0  0
 25 27  1  0  0  0  0
 28 29  1  0  0  0  0
 29 30  2  0  0  0  0
 29 31  1  0  0  0  0
  4 23  1  0  0  0  0
  9 32  1  0  0  0  0
 33 34  1  0  0  0  0
 33 38  2  0  0  0  0
 34 35  2  0  0  0  0
 35 36  1  0  0  0  0
 36 37  2  0  0  0  0
 37 38  1  0  0  0  0
 10 33  1  0  0  0  0
M  END
> <score_KierFlex>
0.500044

$$$$
suggested molecule #286
 MOE2019            2D

 38 40  0  0  1  0  0  0  0  0999 V2000
    2.6624   -1.5546    0.0000 C   0  0  0  0  0  0  0  0  0  1  0  0
    3.9615   -2.3046    0.0000 C   0  0  0  0  0  0  0  0  0  2  0  0
    5.2605   -1.5546    0.0000 C   0  0  0  0  0  0  0  0  0  3  0  0
    5.2605   -0.0546    0.0000 C   0  0  0  0  0  0  0  0  0  4  0  0
    3.9615    0.6954    0.0000 C   0  0  0  0  0  0  0  0  0  5  0  0
    2.6624   -0.0546    0.0000 C   0  0  0  0  0  0  0  0  0  6  0  0
    1.3634    0.6954    0.0000 C   0  0  0  0  0  0  0  0  0  7  0  0
    0.0644   -0.0546    0.0000 O   0  0  0  0  0  0  0  0  0  8  0  0
    1.3634    2.1954    0.0000 C   0  0  0  0  0  0  0  0  0  9  0  0
    2.6624    2.9454    0.0000 C   0  0  0  0  0  0  0  0  0 10  0  0
    3.9615    2.1954    0.0000 O   0  0  0  0  0  0  0  0  0 11  0  0
    1.6232   -2.1546    0.0000 H   0  0  0  0  0  0  0  0  0  0  0  0
    3.9615   -3.8046    0.0000 O   0  0  0  0  0  0  0  0  0  0  0  0
    6.2997   -2.1546    0.0000 H   0  0  0  0  0  0  0  0  0  0  0  0
   10.4567   -7.5546    0.0000 C   0  0  0  0  0  0  0  0  0  0  0  0
   10.4567   -6.0546    0.0000 C   0  0  0  0  0  0  0  0  0  0  0  0
   11.7557   -5.3046    0.0000 C   0  0  0  0  0  0  0  0  0  0  0  0
    9.1576   -5.3046    0.0000 C   0  0  0  0  0  0  0  0  0  0  0  0
    9.1576   -3.8046    0.0000 C   0  0  0  0  0  0  0  0  0  0  0  0
   10.4567   -3.0546    0.0000 O   0  0  0  0  0  0  0  0  0  0  0  0
    7.8586   -3.0546    0.0000 O   0  0  0  0  0  0  0  0  0  0  0  0
    7.8586   -1.5546    0.0000 C   0  0  0  0  0  0  0  0  0  0  0  0
    6.3586   -1.5546    0.0000 C   0  0  0  0  0  0  0  0  0  0  0  0
    9.3586   -1.5546    0.0000 C   0  0  0  0  0  0  0  0  0  0  0  0
    7.8586   -0.0546    0.0000 C   0  0  2  0  0  0  0  0  0  0  0  0
    6.5595    0.6954    0.0000 C   0  0  0  0  0  0  0  0  0  0  0  0
    9.1576    0.6954    0.0000 O   0  0  0  0  0  0  0  0  0  0  0  0
    6.5595    2.1954    0.0000 O   0  0  0  0  0  0  0  0  0  0  0  0
    7.8586    2.9454    0.0000 C   0  0  0  0  0  0  0  0  0  0  0  0
    9.1576    2.1954    0.0000 O   0  0  0  0  0  0  0  0  0  0  0  0
    7.8586    4.4454    0.0000 C   0  0  0  0  0  0  0  0  0  0  0  0
    0.3242    2.7954    0.0000 H   0  0  0  0  0  0  0  0  0  0  0  0
    2.6624    4.4454    0.0000 C   0  0  0  0  0  0  0  0  0  0  0  0
    3.9615    5.1954    0.0000 C   0  0  0  0  0  0  0  0  0  0  0  0
    3.9615    6.6954    0.0000 C   0  0  0  0  0  0  0  0  0  0  0  0
    2.6624    7.4454    0.0000 C   0  0  0  0  0  0  0  0  0  0  0  0
    1.3634    6.6954    0.0000 C   0  0  0  0  0  0  0  0  0  0  0  0
    1.3634    5.1954    0.0000 C   0  0  0  0  0  0  0  0  0  0  0  0
  1  2  2  0  0  0  0
  1  6  1  0  0  0  0
  2  3  1  0  0  0  0
  3  4  2  0  0  0  0
  4  5  1  0  0  0  0
  5  6  2  0  0  0  0
  5 11  1  0  0  0  0
  6  7  1  0  0  0  0
  7  8  2  0  0  0  0
  7  9  1  0  0  0  0
  9 10  2  0  0  0  0
 10 11  1  0  0  0  0
  1 12  1  0  0  0  0
  2 13  1  0  0  0  0
  3 14  1  0  0  0  0
 15 16  1  0  0  0  0
 16 17  1  0  0  0  0
 16 18  1  0  0  0  0
 18 19  1  0  0  0  0
 19 20  2  0  0  0  0
 19 21  1  0  0  0  0
 21 22  1  0  0  0  0
 22 23  1  0  0  0  0
 22 24  1  0  0  0  0
 25 22  1  1  0  0  0
 25 26  1  0  0  0  0
 25 27  1  0  0  0  0
 26 28  1  0  0  0  0
 28 29  1  0  0  0  0
 29 30  2  0  0  0  0
 29 31  1  0  0  0  0
  4 26  1  0  0  0  0
  9 32  1  0  0  0  0
 33 34  1  0  0  0  0
 33 38  2  0  0  0  0
 34 35  2  0  0  0  0
 35 36  1  0  0  0  0
 36 37  2  0  0  0  0
 37 38  1  0  0  0  0
 10 33  1  0  0  0  0
M  END
> <score_KierA3>
0.500286

$$$$
suggested molecule #287
 MOE2019            2D

 38 40  0  0  1  0  0  0  0  0999 V2000
    2.6624   -1.5546    0.0000 C   0  0  0  0  0  0  0  0  0  1  0  0
    3.9615   -2.3046    0.0000 C   0  0  0  0  0  0  0  0  0  2  0  0
    5.2605   -1.5546    0.0000 C   0  0  0  0  0  0  0  0  0  3  0  0
    5.2605   -0.0546    0.0000 C   0  0  0  0  0  0  0  0  0  4  0  0
    3.9615    0.6954    0.0000 C   0  0  0  0  0  0  0  0  0  5  0  0
    2.6624   -0.0546    0.0000 C   0  0  0  0  0  0  0  0  0  6  0  0
    1.3634    0.6954    0.0000 C   0  0  0  0  0  0  0  0  0  7  0  0
    0.0644   -0.0546    0.0000 O   0  0  0  0  0  0  0  0  0  8  0  0
    1.3634    2.1954    0.0000 C   0  0  0  0  0  0  0  0  0  9  0  0
    2.6624    2.9454    0.0000 C   0  0  0  0  0  0  0  0  0 10  0  0
    3.9615    2.1954    0.0000 O   0  0  0  0  0  0  0  0  0 11  0  0
    1.6232   -2.1546    0.0000 H   0  0  0  0  0  0  0  0  0  0  0  0
    3.9615   -3.8046    0.0000 O   0  0  0  0  0  0  0  0  0  0  0  0
    6.2997   -2.1546    0.0000 H   0  0  0  0  0  0  0  0  0  0  0  0
   10.4567   -7.5546    0.0000 C   0  0  0  0  0  0  0  0  0  0  0  0
   10.4567   -6.0546    0.0000 C   0  0  0  0  0  0  0  0  0  0  0  0
   11.7557   -5.3046    0.0000 C   0  0  0  0  0  0  0  0  0  0  0  0
    9.1576   -5.3046    0.0000 C   0  0  0  0  0  0  0  0  0  0  0  0
    9.1576   -3.8046    0.0000 C   0  0  0  0  0  0  0  0  0  0  0  0
   10.4567   -3.0546    0.0000 O   0  0  0  0  0  0  0  0  0  0  0  0
    7.8586   -3.0546    0.0000 O   0  0  0  0  0  0  0  0  0  0  0  0
    7.8586   -1.5546    0.0000 C   0  0  0  0  0  0  0  0  0  0  0  0
    6.3586   -1.5546    0.0000 C   0  0  0  0  0  0  0  0  0  0  0  0
    9.3586   -1.5546    0.0000 C   0  0  0  0  0  0  0  0  0  0  0  0
    7.8586   -0.0546    0.0000 C   0  0  2  0  0  0  0  0  0  0  0  0
    6.5595    0.6954    0.0000 C   0  0  0  0  0  0  0  0  0  0  0  0
    9.1576    0.6954    0.0000 O   0  0  0  0  0  0  0  0  0  0  0  0
    6.5595    2.1954    0.0000 O   0  0  0  0  0  0  0  0  0  0  0  0
    7.8586    2.9454    0.0000 C   0  0  0  0  0  0  0  0  0  0  0  0
    9.1576    2.1954    0.0000 O   0  0  0  0  0  0  0  0  0  0  0  0
    7.8586    4.4454    0.0000 C   0  0  0  0  0  0  0  0  0  0  0  0
    0.3242    2.7954    0.0000 H   0  0  0  0  0  0  0  0  0  0  0  0
    2.6624    4.4454    0.0000 C   0  0  0  0  0  0  0  0  0  0  0  0
    3.9615    5.1954    0.0000 C   0  0  0  0  0  0  0  0  0  0  0  0
    3.9615    6.6954    0.0000 C   0  0  0  0  0  0  0  0  0  0  0  0
    2.6624    7.4454    0.0000 C   0  0  0  0  0  0  0  0  0  0  0  0
    1.3634    6.6954    0.0000 C   0  0  0  0  0  0  0  0  0  0  0  0
    1.3634    5.1954    0.0000 C   0  0  0  0  0  0  0  0  0  0  0  0
  1  2  2  0  0  0  0
  1  6  1  0  0  0  0
  2  3  1  0  0  0  0
  3  4  2  0  0  0  0
  4  5  1  0  0  0  0
  5  6  2  0  0  0  0
  5 11  1  0  0  0  0
  6  7  1  0  0  0  0
  7  8  2  0  0  0  0
  7  9  1  0  0  0  0
  9 10  2  0  0  0  0
 10 11  1  0  0  0  0
  1 12  1  0  0  0  0
  2 13  1  0  0  0  0
  3 14  1  0  0  0  0
 15 16  1  0  0  0  0
 16 17  1  0  0  0  0
 16 18  1  0  0  0  0
 18 19  1  0  0  0  0
 19 20  2  0  0  0  0
 19 21  1  0  0  0  0
 21 22  1  0  0  0  0
 22 23  1  0  0  0  0
 22 24  1  0  0  0  0
 25 22  1  1  0  0  0
 25 26  1  0  0  0  0
 25 27  1  0  0  0  0
 26 28  1  0  0  0  0
 28 29  1  0  0  0  0
 29 30  2  0  0  0  0
 29 31  1  0  0  0  0
  4 26  1  0  0  0  0
  9 32  1  0  0  0  0
 33 34  1  0  0  0  0
 33 38  2  0  0  0  0
 34 35  2  0  0  0  0
 35 36  1  0  0  0  0
 36 37  2  0  0  0  0
 37 38  1  0  0  0  0
 10 33  1  0  0  0  0
M  END
> <score_KierFlex>
0.500044

$$$$
suggested molecule #288
 MOE2019            2D

 41 43  0  0  0  0  0  0  0  0999 V2000
    2.6624   -1.5546    0.0000 C   0  0  0  0  0  0  0  0  0  1  0  0
    3.9615   -2.3046    0.0000 C   0  0  0  0  0  0  0  0  0  2  0  0
    5.2605   -1.5546    0.0000 C   0  0  0  0  0  0  0  0  0  3  0  0
    5.2605   -0.0546    0.0000 C   0  0  0  0  0  0  0  0  0  4  0  0
    3.9615    0.6954    0.0000 C   0  0  0  0  0  0  0  0  0  5  0  0
    2.6624   -0.0546    0.0000 C   0  0  0  0  0  0  0  0  0  6  0  0
    1.3634    0.6954    0.0000 C   0  0  0  0  0  0  0  0  0  7  0  0
    0.0644   -0.0546    0.0000 O   0  0  0  0  0  0  0  0  0  8  0  0
    1.3634    2.1954    0.0000 C   0  0  0  0  0  0  0  0  0  9  0  0
    2.6624    2.9454    0.0000 C   0  0  0  0  0  0  0  0  0 10  0  0
    3.9615    2.1954    0.0000 O   0  0  0  0  0  0  0  0  0 11  0  0
    1.6232   -2.1546    0.0000 H   0  0  0  0  0  0  0  0  0  0  0  0
    3.9615   -3.8046    0.0000 O   0  0  0  0  0  0  0  0  0  0  0  0
    6.2997   -2.1546    0.0000 H   0  0  0  0  0  0  0  0  0  0  0  0
    9.1576    6.6954    0.0000 C   0  0  0  0  0  0  0  0  0  0  0  0
    9.1576    5.1954    0.0000 C   0  0  0  0  0  0  0  0  0  0  0  0
    7.8586    4.4454    0.0000 C   0  0  0  0  0  0  0  0  0  0  0  0
    7.8586    2.9454    0.0000 C   0  0  0  0  0  0  0  0  0  0  0  0
    9.1576    2.1954    0.0000 O   0  0  0  0  0  0  0  0  0  0  0  0
    6.5595    2.1954    0.0000 O   0  0  0  0  0  0  0  0  0  0  0  0
    6.5595    0.6954    0.0000 C   0  0  0  0  0  0  0  0  0  0  0  0
    7.8586   -0.0546    0.0000 C   0  0  0  0  0  0  0  0  0  0  0  0
    7.8586   -1.5546    0.0000 C   0  0  0  0  0  0  0  0  0  0  0  0
    9.3586   -1.5546    0.0000 O   0  0  0  0  0  0  0  0  0  0  0  0
    6.3586   -1.5546    0.0000 C   0  0  0  0  0  0  0  0  0  0  0  0
    7.8586   -3.0546    0.0000 C   0  0  0  0  0  0  0  0  0  0  0  0
    9.1576    0.6954    0.0000 O   0  0  0  0  0  0  0  0  0  0  0  0
   10.4567   -0.0546    0.0000 C   0  0  0  0  0  0  0  0  0  0  0  0
   10.4567   -1.5546    0.0000 O   0  0  0  0  0  0  0  0  0  0  0  0
   11.7557    0.6954    0.0000 C   0  0  0  0  0  0  0  0  0  0  0  0
   13.0547   -0.0546    0.0000 C   0  0  0  0  0  0  0  0  0  0  0  0
   14.3538    0.6954    0.0000 C   0  0  0  0  0  0  0  0  0  0  0  0
   13.0547   -1.5546    0.0000 C   0  0  0  0  0  0  0  0  0  0  0  0
   10.4567    4.4454    0.0000 C   0  0  0  0  0  0  0  0  0  0  0  0
    0.3242    2.7954    0.0000 H   0  0  0  0  0  0  0  0  0  0  0  0
    2.6624    4.4454    0.0000 C   0  0  0  0  0  0  0  0  0  0  0  0
    1.3634    5.1954    0.0000 C   0  0  0  0  0  0  0  0  0  0  0  0
    1.3634    6.6954    0.0000 C   0  0  0  0  0  0  0  0  0  0  0  0
    2.6624    7.4454    0.0000 C   0  0  0  0  0  0  0  0  0  0  0  0
    3.9615    6.6954    0.0000 C   0  0  0  0  0  0  0  0  0  0  0  0
    3.9615    5.1954    0.0000 C   0  0  0  0  0  0  0  0  0  0  0  0
  1  2  2  0  0  0  0
  1  6  1  0  0  0  0
  2  3  1  0  0  0  0
  3  4  2  0  0  0  0
  4  5  1  0  0  0  0
  5  6  2  0  0  0  0
  5 11  1  0  0  0  0
  6  7  1  0  0  0  0
  7  8  2  0  0  0  0
  7  9  1  0  0  0  0
  9 10  2  0  0  0  0
 10 11  1  0  0  0  0
  1 12  1  0  0  0  0
  2 13  1  0  0  0  0
  3 14  1  0  0  0  0
 15 16  1  0  0  0  0
 16 17  2  0  0  0  0
 16 34  1  0  0  0  0
 17 18  1  0  0  0  0
 18 19  2  0  0  0  0
 18 20  1  0  0  0  0
 20 21  1  0  0  0  0
 21 22  1  0  0  0  0
 22 23  1  0  0  0  0
 22 27  1  0  0  0  0
 23 24  1  0  0  0  0
 23 25  1  0  0  0  0
 23 26  1  0  0  0  0
 27 28  1  0  0  0  0
 28 29  2  0  0  0  0
 28 30  1  0  0  0  0
 30 31  2  0  0  0  0
 31 32  1  0  0  0  0
 31 33  1  0  0  0  0
  4 21  1  0  0  0  0
  9 35  1  0  0  0  0
 36 37  1  0  0  0  0
 36 41  2  0  0  0  0
 37 38  2  0  0  0  0
 38 39  1  0  0  0  0
 39 40  2  0  0  0  0
 40 41  1  0  0  0  0
 10 36  1  0  0  0  0
M  END
> <score_KierA3>
0.50028

$$$$
suggested molecule #289
 MOE2019            2D

 41 43  0  0  0  0  0  0  0  0999 V2000
    2.6624   -1.5546    0.0000 C   0  0  0  0  0  0  0  0  0  1  0  0
    3.9615   -2.3046    0.0000 C   0  0  0  0  0  0  0  0  0  2  0  0
    5.2605   -1.5546    0.0000 C   0  0  0  0  0  0  0  0  0  3  0  0
    5.2605   -0.0546    0.0000 C   0  0  0  0  0  0  0  0  0  4  0  0
    3.9615    0.6954    0.0000 C   0  0  0  0  0  0  0  0  0  5  0  0
    2.6624   -0.0546    0.0000 C   0  0  0  0  0  0  0  0  0  6  0  0
    1.3634    0.6954    0.0000 C   0  0  0  0  0  0  0  0  0  7  0  0
    0.0644   -0.0546    0.0000 O   0  0  0  0  0  0  0  0  0  8  0  0
    1.3634    2.1954    0.0000 C   0  0  0  0  0  0  0  0  0  9  0  0
    2.6624    2.9454    0.0000 C   0  0  0  0  0  0  0  0  0 10  0  0
    3.9615    2.1954    0.0000 O   0  0  0  0  0  0  0  0  0 11  0  0
    1.6232   -2.1546    0.0000 H   0  0  0  0  0  0  0  0  0  0  0  0
    3.9615   -3.8046    0.0000 O   0  0  0  0  0  0  0  0  0  0  0  0
    6.2997   -2.1546    0.0000 H   0  0  0  0  0  0  0  0  0  0  0  0
    9.1576    6.6954    0.0000 C   0  0  0  0  0  0  0  0  0  0  0  0
    9.1576    5.1954    0.0000 C   0  0  0  0  0  0  0  0  0  0  0  0
    7.8586    4.4454    0.0000 C   0  0  0  0  0  0  0  0  0  0  0  0
    7.8586    2.9454    0.0000 C   0  0  0  0  0  0  0  0  0  0  0  0
    9.1576    2.1954    0.0000 O   0  0  0  0  0  0  0  0  0  0  0  0
    6.5595    2.1954    0.0000 O   0  0  0  0  0  0  0  0  0  0  0  0
    6.5595    0.6954    0.0000 C   0  0  0  0  0  0  0  0  0  0  0  0
    7.8586   -0.0546    0.0000 C   0  0  0  0  0  0  0  0  0  0  0  0
    7.8586   -1.5546    0.0000 C   0  0  0  0  0  0  0  0  0  0  0  0
    9.3586   -1.5546    0.0000 O   0  0  0  0  0  0  0  0  0  0  0  0
    6.3586   -1.5546    0.0000 C   0  0  0  0  0  0  0  0  0  0  0  0
    7.8586   -3.0546    0.0000 C   0  0  0  0  0  0  0  0  0  0  0  0
    9.1576    0.6954    0.0000 O   0  0  0  0  0  0  0  0  0  0  0  0
   10.4567   -0.0546    0.0000 C   0  0  0  0  0  0  0  0  0  0  0  0
   10.4567   -1.5546    0.0000 O   0  0  0  0  0  0  0  0  0  0  0  0
   11.7557    0.6954    0.0000 C   0  0  0  0  0  0  0  0  0  0  0  0
   13.0547   -0.0546    0.0000 C   0  0  0  0  0  0  0  0  0  0  0  0
   14.3538    0.6954    0.0000 C   0  0  0  0  0  0  0  0  0  0  0  0
   13.0547   -1.5546    0.0000 C   0  0  0  0  0  0  0  0  0  0  0  0
   10.4567    4.4454    0.0000 C   0  0  0  0  0  0  0  0  0  0  0  0
    0.3242    2.7954    0.0000 H   0  0  0  0  0  0  0  0  0  0  0  0
    2.6624    4.4454    0.0000 C   0  0  0  0  0  0  0  0  0  0  0  0
    1.3634    5.1954    0.0000 C   0  0  0  0  0  0  0  0  0  0  0  0
    1.3634    6.6954    0.0000 C   0  0  0  0  0  0  0  0  0  0  0  0
    2.6624    7.4454    0.0000 C   0  0  0  0  0  0  0  0  0  0  0  0
    3.9615    6.6954    0.0000 C   0  0  0  0  0  0  0  0  0  0  0  0
    3.9615    5.1954    0.0000 C   0  0  0  0  0  0  0  0  0  0  0  0
  1  2  2  0  0  0  0
  1  6  1  0  0  0  0
  2  3  1  0  0  0  0
  3  4  2  0  0  0  0
  4  5  1  0  0  0  0
  5  6  2  0  0  0  0
  5 11  1  0  0  0  0
  6  7  1  0  0  0  0
  7  8  2  0  0  0  0
  7  9  1  0  0  0  0
  9 10  2  0  0  0  0
 10 11  1  0  0  0  0
  1 12  1  0  0  0  0
  2 13  1  0  0  0  0
  3 14  1  0  0  0  0
 15 16  1  0  0  0  0
 16 17  2  0  0  0  0
 16 34  1  0  0  0  0
 17 18  1  0  0  0  0
 18 19  2  0  0  0  0
 18 20  1  0  0  0  0
 20 21  1  0  0  0  0
 21 22  1  0  0  0  0
 22 23  1  0  0  0  0
 22 27  1  0  0  0  0
 23 24  1  0  0  0  0
 23 25  1  0  0  0  0
 23 26  1  0  0  0  0
 27 28  1  0  0  0  0
 28 29  2  0  0  0  0
 28 30  1  0  0  0  0
 30 31  2  0  0  0  0
 31 32  1  0  0  0  0
 31 33  1  0  0  0  0
  4 21  1  0  0  0  0
  9 35  1  0  0  0  0
 36 37  1  0  0  0  0
 36 41  2  0  0  0  0
 37 38  2  0  0  0  0
 38 39  1  0  0  0  0
 39 40  2  0  0  0  0
 40 41  1  0  0  0  0
 10 36  1  0  0  0  0
M  END
> <score_KierFlex>
0.50004

$$$$
suggested molecule #290
 MOE2019            2D

 41 43  0  0  0  0  0  0  0  0999 V2000
    2.6624   -1.5546    0.0000 C   0  0  0  0  0  0  0  0  0  1  0  0
    3.9615   -2.3046    0.0000 C   0  0  0  0  0  0  0  0  0  2  0  0
    5.2605   -1.5546    0.0000 C   0  0  0  0  0  0  0  0  0  3  0  0
    5.2605   -0.0546    0.0000 C   0  0  0  0  0  0  0  0  0  4  0  0
    3.9615    0.6954    0.0000 C   0  0  0  0  0  0  0  0  0  5  0  0
    2.6624   -0.0546    0.0000 C   0  0  0  0  0  0  0  0  0  6  0  0
    1.3634    0.6954    0.0000 C   0  0  0  0  0  0  0  0  0  7  0  0
    0.0644   -0.0546    0.0000 O   0  0  0  0  0  0  0  0  0  8  0  0
    1.3634    2.1954    0.0000 C   0  0  0  0  0  0  0  0  0  9  0  0
    2.6624    2.9454    0.0000 C   0  0  0  0  0  0  0  0  0 10  0  0
    3.9615    2.1954    0.0000 O   0  0  0  0  0  0  0  0  0 11  0  0
    1.6232   -2.1546    0.0000 H   0  0  0  0  0  0  0  0  0  0  0  0
    3.9615   -3.8046    0.0000 O   0  0  0  0  0  0  0  0  0  0  0  0
    6.2997   -2.1546    0.0000 H   0  0  0  0  0  0  0  0  0  0  0  0
   14.3538    0.6954    0.0000 C   0  0  0  0  0  0  0  0  0  0  0  0
   13.0547   -0.0546    0.0000 C   0  0  0  0  0  0  0  0  0  0  0  0
   13.0547   -1.5546    0.0000 C   0  0  0  0  0  0  0  0  0  0  0  0
   11.7557    0.6954    0.0000 C   0  0  0  0  0  0  0  0  0  0  0  0
   10.4567   -0.0546    0.0000 C   0  0  0  0  0  0  0  0  0  0  0  0
   10.4567   -1.5546    0.0000 O   0  0  0  0  0  0  0  0  0  0  0  0
    9.1576    0.6954    0.0000 O   0  0  0  0  0  0  0  0  0  0  0  0
    7.8586   -0.0546    0.0000 C   0  0  0  0  0  0  0  0  0  0  0  0
    6.5595    0.6954    0.0000 C   0  0  0  0  0  0  0  0  0  0  0  0
    9.3586   -1.5546    0.0000 O   0  0  0  0  0  0  0  0  0  0  0  0
    7.8586   -1.5546    0.0000 C   0  0  0  0  0  0  0  0  0  0  0  0
    6.3586   -1.5546    0.0000 C   0  0  0  0  0  0  0  0  0  0  0  0
    7.8586   -3.0546    0.0000 C   0  0  0  0  0  0  0  0  0  0  0  0
    6.5595    2.1954    0.0000 O   0  0  0  0  0  0  0  0  0  0  0  0
    7.8586    2.9454    0.0000 C   0  0  0  0  0  0  0  0  0  0  0  0
    9.1576    2.1954    0.0000 O   0  0  0  0  0  0  0  0  0  0  0  0
    7.8586    4.4454    0.0000 C   0  0  0  0  0  0  0  0  0  0  0  0
    9.1576    5.1954    0.0000 C   0  0  0  0  0  0  0  0  0  0  0  0
    9.1576    6.6954    0.0000 C   0  0  0  0  0  0  0  0  0  0  0  0
   10.4567    4.4454    0.0000 C   0  0  0  0  0  0  0  0  0  0  0  0
    0.3242    2.7954    0.0000 H   0  0  0  0  0  0  0  0  0  0  0  0
    2.6624    4.4454    0.0000 C   0  0  0  0  0  0  0  0  0  0  0  0
    1.3634    5.1954    0.0000 C   0  0  0  0  0  0  0  0  0  0  0  0
    1.3634    6.6954    0.0000 C   0  0  0  0  0  0  0  0  0  0  0  0
    2.6624    7.4454    0.0000 C   0  0  0  0  0  0  0  0  0  0  0  0
    3.9615    6.6954    0.0000 C   0  0  0  0  0  0  0  0  0  0  0  0
    3.9615    5.1954    0.0000 C   0  0  0  0  0  0  0  0  0  0  0  0
  1  2  2  0  0  0  0
  1  6  1  0  0  0  0
  2  3  1  0  0  0  0
  3  4  2  0  0  0  0
  4  5  1  0  0  0  0
  5  6  2  0  0  0  0
  5 11  1  0  0  0  0
  6  7  1  0  0  0  0
  7  8  2  0  0  0  0
  7  9  1  0  0  0  0
  9 10  2  0  0  0  0
 10 11  1  0  0  0  0
  1 12  1  0  0  0  0
  2 13  1  0  0  0  0
  3 14  1  0  0  0  0
 15 16  1  0  0  0  0
 16 17  1  0  0  0  0
 16 18  1  0  0  0  0
 18 19  1  0  0  0  0
 19 20  2  0  0  0  0
 19 21  1  0  0  0  0
 21 22  1  0  0  0  0
 22 23  1  0  0  0  0
 22 25  1  0  0  0  0
 23 28  1  0  0  0  0
 24 25  1  0  0  0  0
 25 26  1  0  0  0  0
 25 27  1  0  0  0  0
 28 29  1  0  0  0  0
 29 30  2  0  0  0  0
 29 31  1  0  0  0  0
 31 32  2  0  0  0  0
 32 33  1  0  0  0  0
 32 34  1  0  0  0  0
  4 23  1  0  0  0  0
  9 35  1  0  0  0  0
 36 37  1  0  0  0  0
 36 41  2  0  0  0  0
 37 38  2  0  0  0  0
 38 39  1  0  0  0  0
 39 40  2  0  0  0  0
 40 41  1  0  0  0  0
 10 36  1  0  0  0  0
M  END
> <score_KierA3>
0.500279

$$$$
suggested molecule #291
 MOE2019            2D

 41 43  0  0  0  0  0  0  0  0999 V2000
    2.6624   -1.5546    0.0000 C   0  0  0  0  0  0  0  0  0  1  0  0
    3.9615   -2.3046    0.0000 C   0  0  0  0  0  0  0  0  0  2  0  0
    5.2605   -1.5546    0.0000 C   0  0  0  0  0  0  0  0  0  3  0  0
    5.2605   -0.0546    0.0000 C   0  0  0  0  0  0  0  0  0  4  0  0
    3.9615    0.6954    0.0000 C   0  0  0  0  0  0  0  0  0  5  0  0
    2.6624   -0.0546    0.0000 C   0  0  0  0  0  0  0  0  0  6  0  0
    1.3634    0.6954    0.0000 C   0  0  0  0  0  0  0  0  0  7  0  0
    0.0644   -0.0546    0.0000 O   0  0  0  0  0  0  0  0  0  8  0  0
    1.3634    2.1954    0.0000 C   0  0  0  0  0  0  0  0  0  9  0  0
    2.6624    2.9454    0.0000 C   0  0  0  0  0  0  0  0  0 10  0  0
    3.9615    2.1954    0.0000 O   0  0  0  0  0  0  0  0  0 11  0  0
    1.6232   -2.1546    0.0000 H   0  0  0  0  0  0  0  0  0  0  0  0
    3.9615   -3.8046    0.0000 O   0  0  0  0  0  0  0  0  0  0  0  0
    6.2997   -2.1546    0.0000 H   0  0  0  0  0  0  0  0  0  0  0  0
   14.3538    0.6954    0.0000 C   0  0  0  0  0  0  0  0  0  0  0  0
   13.0547   -0.0546    0.0000 C   0  0  0  0  0  0  0  0  0  0  0  0
   13.0547   -1.5546    0.0000 C   0  0  0  0  0  0  0  0  0  0  0  0
   11.7557    0.6954    0.0000 C   0  0  0  0  0  0  0  0  0  0  0  0
   10.4567   -0.0546    0.0000 C   0  0  0  0  0  0  0  0  0  0  0  0
   10.4567   -1.5546    0.0000 O   0  0  0  0  0  0  0  0  0  0  0  0
    9.1576    0.6954    0.0000 O   0  0  0  0  0  0  0  0  0  0  0  0
    7.8586   -0.0546    0.0000 C   0  0  0  0  0  0  0  0  0  0  0  0
    6.5595    0.6954    0.0000 C   0  0  0  0  0  0  0  0  0  0  0  0
    9.3586   -1.5546    0.0000 O   0  0  0  0  0  0  0  0  0  0  0  0
    7.8586   -1.5546    0.0000 C   0  0  0  0  0  0  0  0  0  0  0  0
    6.3586   -1.5546    0.0000 C   0  0  0  0  0  0  0  0  0  0  0  0
    7.8586   -3.0546    0.0000 C   0  0  0  0  0  0  0  0  0  0  0  0
    6.5595    2.1954    0.0000 O   0  0  0  0  0  0  0  0  0  0  0  0
    7.8586    2.9454    0.0000 C   0  0  0  0  0  0  0  0  0  0  0  0
    9.1576    2.1954    0.0000 O   0  0  0  0  0  0  0  0  0  0  0  0
    7.8586    4.4454    0.0000 C   0  0  0  0  0  0  0  0  0  0  0  0
    9.1576    5.1954    0.0000 C   0  0  0  0  0  0  0  0  0  0  0  0
    9.1576    6.6954    0.0000 C   0  0  0  0  0  0  0  0  0  0  0  0
   10.4567    4.4454    0.0000 C   0  0  0  0  0  0  0  0  0  0  0  0
    0.3242    2.7954    0.0000 H   0  0  0  0  0  0  0  0  0  0  0  0
    2.6624    4.4454    0.0000 C   0  0  0  0  0  0  0  0  0  0  0  0
    1.3634    5.1954    0.0000 C   0  0  0  0  0  0  0  0  0  0  0  0
    1.3634    6.6954    0.0000 C   0  0  0  0  0  0  0  0  0  0  0  0
    2.6624    7.4454    0.0000 C   0  0  0  0  0  0  0  0  0  0  0  0
    3.9615    6.6954    0.0000 C   0  0  0  0  0  0  0  0  0  0  0  0
    3.9615    5.1954    0.0000 C   0  0  0  0  0  0  0  0  0  0  0  0
  1  2  2  0  0  0  0
  1  6  1  0  0  0  0
  2  3  1  0  0  0  0
  3  4  2  0  0  0  0
  4  5  1  0  0  0  0
  5  6  2  0  0  0  0
  5 11  1  0  0  0  0
  6  7  1  0  0  0  0
  7  8  2  0  0  0  0
  7  9  1  0  0  0  0
  9 10  2  0  0  0  0
 10 11  1  0  0  0  0
  1 12  1  0  0  0  0
  2 13  1  0  0  0  0
  3 14  1  0  0  0  0
 15 16  1  0  0  0  0
 16 17  1  0  0  0  0
 16 18  1  0  0  0  0
 18 19  1  0  0  0  0
 19 20  2  0  0  0  0
 19 21  1  0  0  0  0
 21 22  1  0  0  0  0
 22 23  1  0  0  0  0
 22 25  1  0  0  0  0
 23 28  1  0  0  0  0
 24 25  1  0  0  0  0
 25 26  1  0  0  0  0
 25 27  1  0  0  0  0
 28 29  1  0  0  0  0
 29 30  2  0  0  0  0
 29 31  1  0  0  0  0
 31 32  2  0  0  0  0
 32 33  1  0  0  0  0
 32 34  1  0  0  0  0
  4 23  1  0  0  0  0
  9 35  1  0  0  0  0
 36 37  1  0  0  0  0
 36 41  2  0  0  0  0
 37 38  2  0  0  0  0
 38 39  1  0  0  0  0
 39 40  2  0  0  0  0
 40 41  1  0  0  0  0
 10 36  1  0  0  0  0
M  END
> <score_KierFlex>
0.500038

$$$$
suggested molecule #292
 MOE2019            2D

 41 43  0  0  0  0  0  0  0  0999 V2000
    2.6624   -1.5546    0.0000 C   0  0  0  0  0  0  0  0  0  1  0  0
    3.9615   -2.3046    0.0000 C   0  0  0  0  0  0  0  0  0  2  0  0
    5.2605   -1.5546    0.0000 C   0  0  0  0  0  0  0  0  0  3  0  0
    5.2605   -0.0546    0.0000 C   0  0  0  0  0  0  0  0  0  4  0  0
    3.9615    0.6954    0.0000 C   0  0  0  0  0  0  0  0  0  5  0  0
    2.6624   -0.0546    0.0000 C   0  0  0  0  0  0  0  0  0  6  0  0
    1.3634    0.6954    0.0000 C   0  0  0  0  0  0  0  0  0  7  0  0
    0.0644   -0.0546    0.0000 O   0  0  0  0  0  0  0  0  0  8  0  0
    1.3634    2.1954    0.0000 C   0  0  0  0  0  0  0  0  0  9  0  0
    2.6624    2.9454    0.0000 C   0  0  0  0  0  0  0  0  0 10  0  0
    3.9615    2.1954    0.0000 O   0  0  0  0  0  0  0  0  0 11  0  0
    1.6232   -2.1546    0.0000 H   0  0  0  0  0  0  0  0  0  0  0  0
    3.9615   -3.8046    0.0000 O   0  0  0  0  0  0  0  0  0  0  0  0
    6.2997   -2.1546    0.0000 H   0  0  0  0  0  0  0  0  0  0  0  0
   10.4567    4.4454    0.0000 C   0  0  0  0  0  0  0  0  0  0  0  0
    9.1576    5.1954    0.0000 C   0  0  0  0  0  0  0  0  0  0  0  0
    9.1576    6.6954    0.0000 C   0  0  0  0  0  0  0  0  0  0  0  0
    7.8586    4.4454    0.0000 C   0  0  0  0  0  0  0  0  0  0  0  0
    7.8586    2.9454    0.0000 C   0  0  0  0  0  0  0  0  0  0  0  0
    9.1576    2.1954    0.0000 O   0  0  0  0  0  0  0  0  0  0  0  0
    6.5595    2.1954    0.0000 O   0  0  0  0  0  0  0  0  0  0  0  0
    6.5595    0.6954    0.0000 C   0  0  0  0  0  0  0  0  0  0  0  0
    7.8586   -0.0546    0.0000 C   0  0  0  0  0  0  0  0  0  0  0  0
    9.1576    0.6954    0.0000 O   0  0  0  0  0  0  0  0  0  0  0  0
    7.8586   -1.5546    0.0000 C   0  0  0  0  0  0  0  0  0  0  0  0
    7.8586   -3.0546    0.0000 C   0  0  0  0  0  0  0  0  0  0  0  0
    6.3586   -1.5546    0.0000 C   0  0  0  0  0  0  0  0  0  0  0  0
    9.3586   -1.5546    0.0000 O   0  0  0  0  0  0  0  0  0  0  0  0
   10.1086   -2.8536    0.0000 C   0  0  0  0  0  0  0  0  0  0  0  0
   11.6086   -2.8536    0.0000 O   0  0  0  0  0  0  0  0  0  0  0  0
    9.3586   -4.1527    0.0000 C   0  0  0  0  0  0  0  0  0  0  0  0
   10.1086   -5.4517    0.0000 C   0  0  0  0  0  0  0  0  0  0  0  0
   11.6086   -5.4517    0.0000 C   0  0  0  0  0  0  0  0  0  0  0  0
    9.3586   -6.7508    0.0000 C   0  0  0  0  0  0  0  0  0  0  0  0
    0.3242    2.7954    0.0000 H   0  0  0  0  0  0  0  0  0  0  0  0
    2.6624    4.4454    0.0000 C   0  0  0  0  0  0  0  0  0  0  0  0
    3.9615    5.1954    0.0000 C   0  0  0  0  0  0  0  0  0  0  0  0
    3.9615    6.6954    0.0000 C   0  0  0  0  0  0  0  0  0  0  0  0
    2.6624    7.4454    0.0000 C   0  0  0  0  0  0  0  0  0  0  0  0
    1.3634    6.6954    0.0000 C   0  0  0  0  0  0  0  0  0  0  0  0
    1.3634    5.1954    0.0000 C   0  0  0  0  0  0  0  0  0  0  0  0
  1  2  1  0  0  0  0
  1  6  2  0  0  0  0
  2  3  2  0  0  0  0
  3  4  1  0  0  0  0
  4  5  2  0  0  0  0
  5  6  1  0  0  0  0
  5 11  1  0  0  0  0
  6  7  1  0  0  0  0
  7  8  2  0  0  0  0
  7  9  1  0  0  0  0
  9 10  2  0  0  0  0
 10 11  1  0  0  0  0
  1 12  1  0  0  0  0
  2 13  1  0  0  0  0
  3 14  1  0  0  0  0
 15 16  1  0  0  0  0
 16 17  1  0  0  0  0
 16 18  1  0  0  0  0
 18 19  1  0  0  0  0
 19 20  2  0  0  0  0
 19 21  1  0  0  0  0
 21 22  1  0  0  0  0
 22 23  1  0  0  0  0
 23 24  1  0  0  0  0
 23 25  1  0  0  0  0
 25 26  1  0  0  0  0
 25 27  1  0  0  0  0
 25 28  1  0  0  0  0
 28 29  1  0  0  0  0
 29 30  2  0  0  0  0
 29 31  1  0  0  0  0
 31 32  1  0  0  0  0
 32 33  1  0  0  0  0
 32 34  1  0  0  0  0
  4 22  1  0  0  0  0
  9 35  1  0  0  0  0
 36 37  1  0  0  0  0
 36 41  2  0  0  0  0
 37 38  2  0  0  0  0
 38 39  1  0  0  0  0
 39 40  2  0  0  0  0
 40 41  1  0  0  0  0
 10 36  1  0  0  0  0
M  END
> <score_KierA3>
0.500277

$$$$
suggested molecule #293
 MOE2019            2D

 41 43  0  0  0  0  0  0  0  0999 V2000
    2.6624   -1.5546    0.0000 C   0  0  0  0  0  0  0  0  0  1  0  0
    3.9615   -2.3046    0.0000 C   0  0  0  0  0  0  0  0  0  2  0  0
    5.2605   -1.5546    0.0000 C   0  0  0  0  0  0  0  0  0  3  0  0
    5.2605   -0.0546    0.0000 C   0  0  0  0  0  0  0  0  0  4  0  0
    3.9615    0.6954    0.0000 C   0  0  0  0  0  0  0  0  0  5  0  0
    2.6624   -0.0546    0.0000 C   0  0  0  0  0  0  0  0  0  6  0  0
    1.3634    0.6954    0.0000 C   0  0  0  0  0  0  0  0  0  7  0  0
    0.0644   -0.0546    0.0000 O   0  0  0  0  0  0  0  0  0  8  0  0
    1.3634    2.1954    0.0000 C   0  0  0  0  0  0  0  0  0  9  0  0
    2.6624    2.9454    0.0000 C   0  0  0  0  0  0  0  0  0 10  0  0
    3.9615    2.1954    0.0000 O   0  0  0  0  0  0  0  0  0 11  0  0
    1.6232   -2.1546    0.0000 H   0  0  0  0  0  0  0  0  0  0  0  0
    3.9615   -3.8046    0.0000 O   0  0  0  0  0  0  0  0  0  0  0  0
    6.2997   -2.1546    0.0000 H   0  0  0  0  0  0  0  0  0  0  0  0
   10.4567    4.4454    0.0000 C   0  0  0  0  0  0  0  0  0  0  0  0
    9.1576    5.1954    0.0000 C   0  0  0  0  0  0  0  0  0  0  0  0
    9.1576    6.6954    0.0000 C   0  0  0  0  0  0  0  0  0  0  0  0
    7.8586    4.4454    0.0000 C   0  0  0  0  0  0  0  0  0  0  0  0
    7.8586    2.9454    0.0000 C   0  0  0  0  0  0  0  0  0  0  0  0
    9.1576    2.1954    0.0000 O   0  0  0  0  0  0  0  0  0  0  0  0
    6.5595    2.1954    0.0000 O   0  0  0  0  0  0  0  0  0  0  0  0
    6.5595    0.6954    0.0000 C   0  0  0  0  0  0  0  0  0  0  0  0
    7.8586   -0.0546    0.0000 C   0  0  0  0  0  0  0  0  0  0  0  0
    9.1576    0.6954    0.0000 O   0  0  0  0  0  0  0  0  0  0  0  0
    7.8586   -1.5546    0.0000 C   0  0  0  0  0  0  0  0  0  0  0  0
    7.8586   -3.0546    0.0000 C   0  0  0  0  0  0  0  0  0  0  0  0
    6.3586   -1.5546    0.0000 C   0  0  0  0  0  0  0  0  0  0  0  0
    9.3586   -1.5546    0.0000 O   0  0  0  0  0  0  0  0  0  0  0  0
   10.1086   -2.8536    0.0000 C   0  0  0  0  0  0  0  0  0  0  0  0
   11.6086   -2.8536    0.0000 O   0  0  0  0  0  0  0  0  0  0  0  0
    9.3586   -4.1527    0.0000 C   0  0  0  0  0  0  0  0  0  0  0  0
   10.1086   -5.4517    0.0000 C   0  0  0  0  0  0  0  0  0  0  0  0
   11.6086   -5.4517    0.0000 C   0  0  0  0  0  0  0  0  0  0  0  0
    9.3586   -6.7508    0.0000 C   0  0  0  0  0  0  0  0  0  0  0  0
    0.3242    2.7954    0.0000 H   0  0  0  0  0  0  0  0  0  0  0  0
    2.6624    4.4454    0.0000 C   0  0  0  0  0  0  0  0  0  0  0  0
    3.9615    5.1954    0.0000 C   0  0  0  0  0  0  0  0  0  0  0  0
    3.9615    6.6954    0.0000 C   0  0  0  0  0  0  0  0  0  0  0  0
    2.6624    7.4454    0.0000 C   0  0  0  0  0  0  0  0  0  0  0  0
    1.3634    6.6954    0.0000 C   0  0  0  0  0  0  0  0  0  0  0  0
    1.3634    5.1954    0.0000 C   0  0  0  0  0  0  0  0  0  0  0  0
  1  2  1  0  0  0  0
  1  6  2  0  0  0  0
  2  3  2  0  0  0  0
  3  4  1  0  0  0  0
  4  5  2  0  0  0  0
  5  6  1  0  0  0  0
  5 11  1  0  0  0  0
  6  7  1  0  0  0  0
  7  8  2  0  0  0  0
  7  9  1  0  0  0  0
  9 10  2  0  0  0  0
 10 11  1  0  0  0  0
  1 12  1  0  0  0  0
  2 13  1  0  0  0  0
  3 14  1  0  0  0  0
 15 16  1  0  0  0  0
 16 17  1  0  0  0  0
 16 18  1  0  0  0  0
 18 19  1  0  0  0  0
 19 20  2  0  0  0  0
 19 21  1  0  0  0  0
 21 22  1  0  0  0  0
 22 23  1  0  0  0  0
 23 24  1  0  0  0  0
 23 25  1  0  0  0  0
 25 26  1  0  0  0  0
 25 27  1  0  0  0  0
 25 28  1  0  0  0  0
 28 29  1  0  0  0  0
 29 30  2  0  0  0  0
 29 31  1  0  0  0  0
 31 32  1  0  0  0  0
 32 33  1  0  0  0  0
 32 34  1  0  0  0  0
  4 22  1  0  0  0  0
  9 35  1  0  0  0  0
 36 37  1  0  0  0  0
 36 41  2  0  0  0  0
 37 38  2  0  0  0  0
 38 39  1  0  0  0  0
 39 40  2  0  0  0  0
 40 41  1  0  0  0  0
 10 36  1  0  0  0  0
M  END
> <score_KierFlex>
0.500035

$$$$
suggested molecule #294
 MOE2019            2D

 22 24  0  0  0  0  0  0  0  0999 V2000
    3.4992   -1.2833    0.0000 C   0  0  0  0  0  0  0  0  0  1  0  0
    4.9992   -1.2762    0.0000 C   0  0  0  0  0  0  0  0  0  2  0  0
    5.7430    0.0263    0.0000 C   0  0  0  0  0  0  0  0  0  3  0  0
    4.9869    1.3218    0.0000 C   0  0  0  0  0  0  0  0  0  4  0  0
    3.4870    1.3147    0.0000 C   0  0  0  0  0  0  0  0  0  5  0  0
    2.7431    0.0122    0.0000 C   0  0  0  0  0  0  0  0  0  6  0  0
    1.2431    0.0051    0.0000 C   0  0  0  0  0  0  0  0  0  7  0  0
    0.4870    1.3006    0.0000 C   0  0  0  0  0  0  0  0  0  8  0  0
    1.2309    2.6032    0.0000 C   0  0  0  0  0  0  0  0  0  9  0  0
    0.4748    3.8987    0.0000 O   0  0  0  0  0  0  0  0  0 10  0  0
    2.7309    2.6102    0.0000 O   0  0  0  0  0  0  0  0  0 11  0  0
    2.9041   -2.3253    0.0000 H   0  0  0  0  0  0  0  0  0  0  0  0
    9.3017   -2.0060    0.0000 C   0  0  0  0  0  0  0  0  0  0  0  0
    7.9991   -1.2621    0.0000 C   0  0  0  0  0  0  0  0  0  0  0  0
    7.2552   -2.5647    0.0000 C   0  0  0  0  0  0  0  0  0  0  0  0
    5.7553   -2.5717    0.0000 C   0  0  0  0  0  0  0  0  0  0  0  0
    7.2430    0.0334    0.0000 O   0  0  0  0  0  0  0  0  0  0  0  0
    9.2946   -0.5060    0.0000 C   0  0  0  0  0  0  0  0  0  0  0  0
    5.7308    2.6244    0.0000 O   0  0  0  0  0  0  0  0  0  0  0  0
    4.9747    3.9198    0.0000 C   0  0  0  0  0  0  0  0  0  0  0  0
   -0.7130    1.2950    0.0000 H   0  0  0  0  0  0  0  0  0  0  0  0
    0.6480   -1.0369    0.0000 H   0  0  0  0  0  0  0  0  0  0  0  0
  1  2  1  0  0  0  0
  1  6  2  0  0  0  0
  2  3  2  0  0  0  0
  3  4  1  0  0  0  0
  4  5  2  0  0  0  0
  5  6  1  0  0  0  0
  5 11  1  0  0  0  0
  6  7  1  0  0  0  0
  7  8  2  0  0  0  0
  8  9  1  0  0  0  0
  9 10  2  0  0  0  0
  9 11  1  0  0  0  0
  1 12  1  0  0  0  0
 13 14  1  0  0  0  0
 14 15  1  0  0  0  0
 14 17  1  0  0  0  0
 14 18  1  0  0  0  0
 15 16  2  0  0  0  0
  2 16  1  0  0  0  0
  3 17  1  0  0  0  0
 19 20  1  0  0  0  0
  4 19  1  0  0  0  0
  8 21  1  0  0  0  0
  7 22  1  0  0  0  0
M  END
> <score_KierA3>
0.512235

$$$$
suggested molecule #295
 MOE2019            2D

 22 24  0  0  0  0  0  0  0  0999 V2000
    3.4992   -1.2833    0.0000 C   0  0  0  0  0  0  0  0  0  1  0  0
    4.9992   -1.2762    0.0000 C   0  0  0  0  0  0  0  0  0  2  0  0
    5.7430    0.0263    0.0000 C   0  0  0  0  0  0  0  0  0  3  0  0
    4.9869    1.3218    0.0000 C   0  0  0  0  0  0  0  0  0  4  0  0
    3.4870    1.3147    0.0000 C   0  0  0  0  0  0  0  0  0  5  0  0
    2.7431    0.0122    0.0000 C   0  0  0  0  0  0  0  0  0  6  0  0
    1.2431    0.0051    0.0000 C   0  0  0  0  0  0  0  0  0  7  0  0
    0.4870    1.3006    0.0000 C   0  0  0  0  0  0  0  0  0  8  0  0
    1.2309    2.6032    0.0000 C   0  0  0  0  0  0  0  0  0  9  0  0
    0.4748    3.8987    0.0000 O   0  0  0  0  0  0  0  0  0 10  0  0
    2.7309    2.6102    0.0000 O   0  0  0  0  0  0  0  0  0 11  0  0
    2.9041   -2.3253    0.0000 H   0  0  0  0  0  0  0  0  0  0  0  0
    9.3017   -2.0060    0.0000 C   0  0  0  0  0  0  0  0  0  0  0  0
    7.9991   -1.2621    0.0000 C   0  0  0  0  0  0  0  0  0  0  0  0
    7.2552   -2.5647    0.0000 C   0  0  0  0  0  0  0  0  0  0  0  0
    5.7553   -2.5717    0.0000 C   0  0  0  0  0  0  0  0  0  0  0  0
    7.2430    0.0334    0.0000 O   0  0  0  0  0  0  0  0  0  0  0  0
    9.2946   -0.5060    0.0000 C   0  0  0  0  0  0  0  0  0  0  0  0
    5.7308    2.6244    0.0000 O   0  0  0  0  0  0  0  0  0  0  0  0
    4.9747    3.9198    0.0000 C   0  0  0  0  0  0  0  0  0  0  0  0
   -0.7130    1.2950    0.0000 H   0  0  0  0  0  0  0  0  0  0  0  0
    0.6480   -1.0369    0.0000 H   0  0  0  0  0  0  0  0  0  0  0  0
  1  2  1  0  0  0  0
  1  6  2  0  0  0  0
  2  3  2  0  0  0  0
  3  4  1  0  0  0  0
  4  5  2  0  0  0  0
  5  6  1  0  0  0  0
  5 11  1  0  0  0  0
  6  7  1  0  0  0  0
  7  8  2  0  0  0  0
  8  9  1  0  0  0  0
  9 10  2  0  0  0  0
  9 11  1  0  0  0  0
  1 12  1  0  0  0  0
 13 14  1  0  0  0  0
 14 15  1  0  0  0  0
 14 17  1  0  0  0  0
 14 18  1  0  0  0  0
 15 16  2  0  0  0  0
  2 16  1  0  0  0  0
  3 17  1  0  0  0  0
 19 20  1  0  0  0  0
  4 19  1  0  0  0  0
  8 21  1  0  0  0  0
  7 22  1  0  0  0  0
M  END
> <score_KierFlex>
0.516259

$$$$
suggested molecule #296
 MOE2019            2D

 28 31  0  0  0  0  0  0  0  0999 V2000
    3.4992   -1.2833    0.0000 C   0  0  0  0  0  0  0  0  0  1  0  0
    4.9992   -1.2762    0.0000 C   0  0  0  0  0  0  0  0  0  2  0  0
    5.7430    0.0263    0.0000 C   0  0  0  0  0  0  0  0  0  3  0  0
    4.9869    1.3218    0.0000 C   0  0  0  0  0  0  0  0  0  4  0  0
    3.4870    1.3147    0.0000 C   0  0  0  0  0  0  0  0  0  5  0  0
    2.7431    0.0122    0.0000 C   0  0  0  0  0  0  0  0  0  6  0  0
    1.2431    0.0051    0.0000 C   0  0  0  0  0  0  0  0  0  7  0  0
    0.4870    1.3006    0.0000 C   0  0  0  0  0  0  0  0  0  8  0  0
    1.2309    2.6032    0.0000 C   0  0  0  0  0  0  0  0  0  9  0  0
    0.4748    3.8987    0.0000 O   0  0  0  0  0  0  0  0  0 10  0  0
    2.7309    2.6102    0.0000 O   0  0  0  0  0  0  0  0  0 11  0  0
    2.9041   -2.3253    0.0000 H   0  0  0  0  0  0  0  0  0  0  0  0
    9.3017   -2.0060    0.0000 C   0  0  0  0  0  0  0  0  0  0  0  0
    7.9991   -1.2621    0.0000 C   0  0  0  0  0  0  0  0  0  0  0  0
    7.2552   -2.5647    0.0000 C   0  0  0  0  0  0  0  0  0  0  0  0
    5.7553   -2.5717    0.0000 C   0  0  0  0  0  0  0  0  0  0  0  0
    7.2430    0.0334    0.0000 O   0  0  0  0  0  0  0  0  0  0  0  0
    9.2946   -0.5060    0.0000 C   0  0  0  0  0  0  0  0  0  0  0  0
    5.7308    2.6244    0.0000 O   0  0  0  0  0  0  0  0  0  0  0  0
    7.2308    2.6314    0.0000 C   0  0  0  0  0  0  0  0  0  0  0  0
   -1.0130    1.2936    0.0000 C   0  0  0  0  0  0  0  0  0  0  0  0
   -1.7691    2.5891    0.0000 C   0  0  0  0  0  0  0  0  0  0  0  0
   -3.2691    2.5820    0.0000 C   0  0  0  0  0  0  0  0  0  0  0  0
   -4.0130    1.2795    0.0000 C   0  0  0  0  0  0  0  0  0  0  0  0
   -3.2569   -0.0160    0.0000 C   0  0  0  0  0  0  0  0  0  0  0  0
   -1.7569   -0.0090    0.0000 C   0  0  0  0  0  0  0  0  0  0  0  0
   -5.5129    1.2724    0.0000 O   0  0  0  0  0  0  0  0  0  0  0  0
    0.6480   -1.0369    0.0000 H   0  0  0  0  0  0  0  0  0  0  0  0
  1  2  1  0  0  0  0
  1  6  2  0  0  0  0
  2  3  2  0  0  0  0
  3  4  1  0  0  0  0
  4  5  2  0  0  0  0
  5  6  1  0  0  0  0
  5 11  1  0  0  0  0
  6  7  1  0  0  0  0
  7  8  2  0  0  0  0
  8  9  1  0  0  0  0
  9 10  2  0  0  0  0
  9 11  1  0  0  0  0
  1 12  1  0  0  0  0
 13 14  1  0  0  0  0
 14 15  1  0  0  0  0
 14 17  1  0  0  0  0
 14 18  1  0  0  0  0
 15 16  2  0  0  0  0
  2 16  1  0  0  0  0
  3 17  1  0  0  0  0
 19 20  1  0  0  0  0
  4 19  1  0  0  0  0
 21 22  1  0  0  0  0
 21 26  2  0  0  0  0
 22 23  2  0  0  0  0
 23 24  1  0  0  0  0
 24 25  2  0  0  0  0
 24 27  1  0  0  0  0
 25 26  1  0  0  0  0
  8 21  1  0  0  0  0
  7 28  1  0  0  0  0
M  END
> <score_Kier3>
0.511459

$$$$
suggested molecule #297
 MOE2019            2D

 28 31  0  0  0  0  0  0  0  0999 V2000
    3.4992   -1.2833    0.0000 C   0  0  0  0  0  0  0  0  0  1  0  0
    4.9992   -1.2762    0.0000 C   0  0  0  0  0  0  0  0  0  2  0  0
    5.7430    0.0263    0.0000 C   0  0  0  0  0  0  0  0  0  3  0  0
    4.9869    1.3218    0.0000 C   0  0  0  0  0  0  0  0  0  4  0  0
    3.4870    1.3147    0.0000 C   0  0  0  0  0  0  0  0  0  5  0  0
    2.7431    0.0122    0.0000 C   0  0  0  0  0  0  0  0  0  6  0  0
    1.2431    0.0051    0.0000 C   0  0  0  0  0  0  0  0  0  7  0  0
    0.4870    1.3006    0.0000 C   0  0  0  0  0  0  0  0  0  8  0  0
    1.2309    2.6032    0.0000 C   0  0  0  0  0  0  0  0  0  9  0  0
    0.4748    3.8987    0.0000 O   0  0  0  0  0  0  0  0  0 10  0  0
    2.7309    2.6102    0.0000 O   0  0  0  0  0  0  0  0  0 11  0  0
    2.9041   -2.3253    0.0000 H   0  0  0  0  0  0  0  0  0  0  0  0
    9.3017   -2.0060    0.0000 C   0  0  0  0  0  0  0  0  0  0  0  0
    7.9991   -1.2621    0.0000 C   0  0  0  0  0  0  0  0  0  0  0  0
    7.2552   -2.5647    0.0000 C   0  0  0  0  0  0  0  0  0  0  0  0
    5.7553   -2.5717    0.0000 C   0  0  0  0  0  0  0  0  0  0  0  0
    7.2430    0.0334    0.0000 O   0  0  0  0  0  0  0  0  0  0  0  0
    9.2946   -0.5060    0.0000 C   0  0  0  0  0  0  0  0  0  0  0  0
    5.7308    2.6244    0.0000 O   0  0  0  0  0  0  0  0  0  0  0  0
    7.2308    2.6314    0.0000 C   0  0  0  0  0  0  0  0  0  0  0  0
   -1.0130    1.2936    0.0000 C   0  0  0  0  0  0  0  0  0  0  0  0
   -1.7691    2.5891    0.0000 C   0  0  0  0  0  0  0  0  0  0  0  0
   -3.2691    2.5820    0.0000 C   0  0  0  0  0  0  0  0  0  0  0  0
   -4.0130    1.2795    0.0000 C   0  0  0  0  0  0  0  0  0  0  0  0
   -3.2569   -0.0160    0.0000 C   0  0  0  0  0  0  0  0  0  0  0  0
   -1.7569   -0.0090    0.0000 C   0  0  0  0  0  0  0  0  0  0  0  0
   -5.5129    1.2724    0.0000 O   0  0  0  0  0  0  0  0  0  0  0  0
    0.6480   -1.0369    0.0000 H   0  0  0  0  0  0  0  0  0  0  0  0
  1  2  1  0  0  0  0
  1  6  2  0  0  0  0
  2  3  2  0  0  0  0
  3  4  1  0  0  0  0
  4  5  2  0  0  0  0
  5  6  1  0  0  0  0
  5 11  1  0  0  0  0
  6  7  1  0  0  0  0
  7  8  2  0  0  0  0
  8  9  1  0  0  0  0
  9 10  2  0  0  0  0
  9 11  1  0  0  0  0
  1 12  1  0  0  0  0
 13 14  1  0  0  0  0
 14 15  1  0  0  0  0
 14 17  1  0  0  0  0
 14 18  1  0  0  0  0
 15 16  2  0  0  0  0
  2 16  1  0  0  0  0
  3 17  1  0  0  0  0
 19 20  1  0  0  0  0
  4 19  1  0  0  0  0
 21 22  1  0  0  0  0
 21 26  2  0  0  0  0
 22 23  2  0  0  0  0
 23 24  1  0  0  0  0
 24 25  2  0  0  0  0
 24 27  1  0  0  0  0
 25 26  1  0  0  0  0
  8 21  1  0  0  0  0
  7 28  1  0  0  0  0
M  END
> <score_KierFlex>
0.516325

$$$$
suggested molecule #298
 MOE2019            2D

 30 33  0  0  0  0  0  0  0  0999 V2000
    3.4992   -1.2833    0.0000 C   0  0  0  0  0  0  0  0  0  1  0  0
    4.9992   -1.2762    0.0000 C   0  0  0  0  0  0  0  0  0  2  0  0
    5.7430    0.0263    0.0000 C   0  0  0  0  0  0  0  0  0  3  0  0
    4.9869    1.3218    0.0000 C   0  0  0  0  0  0  0  0  0  4  0  0
    3.4870    1.3147    0.0000 C   0  0  0  0  0  0  0  0  0  5  0  0
    2.7431    0.0122    0.0000 C   0  0  0  0  0  0  0  0  0  6  0  0
    1.2431    0.0051    0.0000 C   0  0  0  0  0  0  0  0  0  7  0  0
    0.4870    1.3006    0.0000 C   0  0  0  0  0  0  0  0  0  8  0  0
    1.2309    2.6032    0.0000 C   0  0  0  0  0  0  0  0  0  9  0  0
    0.4748    3.8987    0.0000 O   0  0  0  0  0  0  0  0  0 10  0  0
    2.7309    2.6102    0.0000 O   0  0  0  0  0  0  0  0  0 11  0  0
    2.9041   -2.3253    0.0000 H   0  0  0  0  0  0  0  0  0  0  0  0
    9.3017   -2.0060    0.0000 C   0  0  0  0  0  0  0  0  0  0  0  0
    7.9991   -1.2621    0.0000 C   0  0  0  0  0  0  0  0  0  0  0  0
    7.2552   -2.5647    0.0000 C   0  0  0  0  0  0  0  0  0  0  0  0
    5.7553   -2.5717    0.0000 C   0  0  0  0  0  0  0  0  0  0  0  0
    7.2430    0.0334    0.0000 O   0  0  0  0  0  0  0  0  0  0  0  0
    9.2946   -0.5060    0.0000 C   0  0  0  0  0  0  0  0  0  0  0  0
    5.7308    2.6244    0.0000 O   0  0  0  0  0  0  0  0  0  0  0  0
    7.2308    2.6314    0.0000 C   0  0  0  0  0  0  0  0  0  0  0  0
   -1.7691    2.5891    0.0000 C   0  0  0  0  0  0  0  0  0  0  0  0
   -1.0130    1.2936    0.0000 C   0  0  0  0  0  0  0  0  0  0  0  0
   -1.7569   -0.0090    0.0000 C   0  0  0  0  0  0  0  0  0  0  0  0
   -3.2569   -0.0160    0.0000 C   0  0  0  0  0  0  0  0  0  0  0  0
   -4.0130    1.2795    0.0000 C   0  0  0  0  0  0  0  0  0  0  0  0
   -3.2691    2.5820    0.0000 C   0  0  0  0  0  0  0  0  0  0  0  0
   -4.0252    3.8775    0.0000 O   0  0  0  0  0  0  0  0  0  0  0  0
   -5.5129    1.2724    0.0000 O   0  0  0  0  0  0  0  0  0  0  0  0
   -4.0007   -1.3186    0.0000 O   0  0  0  0  0  0  0  0  0  0  0  0
    0.6480   -1.0369    0.0000 H   0  0  0  0  0  0  0  0  0  0  0  0
  1  2  1  0  0  0  0
  1  6  2  0  0  0  0
  2  3  2  0  0  0  0
  3  4  1  0  0  0  0
  4  5  2  0  0  0  0
  5  6  1  0  0  0  0
  5 11  1  0  0  0  0
  6  7  1  0  0  0  0
  7  8  2  0  0  0  0
  8  9  1  0  0  0  0
  9 10  2  0  0  0  0
  9 11  1  0  0  0  0
  1 12  1  0  0  0  0
 13 14  1  0  0  0  0
 14 15  1  0  0  0  0
 14 17  1  0  0  0  0
 14 18  1  0  0  0  0
 15 16  2  0  0  0  0
  2 16  1  0  0  0  0
  3 17  1  0  0  0  0
 19 20  1  0  0  0  0
  4 19  1  0  0  0  0
 21 22  1  0  0  0  0
 21 26  2  0  0  0  0
 22 23  2  0  0  0  0
 23 24  1  0  0  0  0
 24 25  2  0  0  0  0
 24 29  1  0  0  0  0
 25 26  1  0  0  0  0
 25 28  1  0  0  0  0
 26 27  1  0  0  0  0
  8 22  1  0  0  0  0
  7 30  1  0  0  0  0
M  END
> <score_Kier1>
0.517727

$$$$
suggested molecule #299
 MOE2019            2D

 30 33  0  0  0  0  0  0  0  0999 V2000
    3.4992   -1.2833    0.0000 C   0  0  0  0  0  0  0  0  0  1  0  0
    4.9992   -1.2762    0.0000 C   0  0  0  0  0  0  0  0  0  2  0  0
    5.7430    0.0263    0.0000 C   0  0  0  0  0  0  0  0  0  3  0  0
    4.9869    1.3218    0.0000 C   0  0  0  0  0  0  0  0  0  4  0  0
    3.4870    1.3147    0.0000 C   0  0  0  0  0  0  0  0  0  5  0  0
    2.7431    0.0122    0.0000 C   0  0  0  0  0  0  0  0  0  6  0  0
    1.2431    0.0051    0.0000 C   0  0  0  0  0  0  0  0  0  7  0  0
    0.4870    1.3006    0.0000 C   0  0  0  0  0  0  0  0  0  8  0  0
    1.2309    2.6032    0.0000 C   0  0  0  0  0  0  0  0  0  9  0  0
    0.4748    3.8987    0.0000 O   0  0  0  0  0  0  0  0  0 10  0  0
    2.7309    2.6102    0.0000 O   0  0  0  0  0  0  0  0  0 11  0  0
    2.9041   -2.3253    0.0000 H   0  0  0  0  0  0  0  0  0  0  0  0
    9.3017   -2.0060    0.0000 C   0  0  0  0  0  0  0  0  0  0  0  0
    7.9991   -1.2621    0.0000 C   0  0  0  0  0  0  0  0  0  0  0  0
    7.2552   -2.5647    0.0000 C   0  0  0  0  0  0  0  0  0  0  0  0
    5.7553   -2.5717    0.0000 C   0  0  0  0  0  0  0  0  0  0  0  0
    7.2430    0.0334    0.0000 O   0  0  0  0  0  0  0  0  0  0  0  0
    9.2946   -0.5060    0.0000 C   0  0  0  0  0  0  0  0  0  0  0  0
    5.7308    2.6244    0.0000 O   0  0  0  0  0  0  0  0  0  0  0  0
    7.2308    2.6314    0.0000 C   0  0  0  0  0  0  0  0  0  0  0  0
   -1.7691    2.5891    0.0000 C   0  0  0  0  0  0  0  0  0  0  0  0
   -1.0130    1.2936    0.0000 C   0  0  0  0  0  0  0  0  0  0  0  0
   -1.7569   -0.0090    0.0000 C   0  0  0  0  0  0  0  0  0  0  0  0
   -3.2569   -0.0160    0.0000 C   0  0  0  0  0  0  0  0  0  0  0  0
   -4.0130    1.2795    0.0000 C   0  0  0  0  0  0  0  0  0  0  0  0
   -3.2691    2.5820    0.0000 C   0  0  0  0  0  0  0  0  0  0  0  0
   -4.0252    3.8775    0.0000 O   0  0  0  0  0  0  0  0  0  0  0  0
   -5.5129    1.2724    0.0000 O   0  0  0  0  0  0  0  0  0  0  0  0
   -4.0007   -1.3186    0.0000 O   0  0  0  0  0  0  0  0  0  0  0  0
    0.6480   -1.0369    0.0000 H   0  0  0  0  0  0  0  0  0  0  0  0
  1  2  1  0  0  0  0
  1  6  2  0  0  0  0
  2  3  2  0  0  0  0
  3  4  1  0  0  0  0
  4  5  2  0  0  0  0
  5  6  1  0  0  0  0
  5 11  1  0  0  0  0
  6  7  1  0  0  0  0
  7  8  2  0  0  0  0
  8  9  1  0  0  0  0
  9 10  2  0  0  0  0
  9 11  1  0  0  0  0
  1 12  1  0  0  0  0
 13 14  1  0  0  0  0
 14 15  1  0  0  0  0
 14 17  1  0  0  0  0
 14 18  1  0  0  0  0
 15 16  2  0  0  0  0
  2 16  1  0  0  0  0
  3 17  1  0  0  0  0
 19 20  1  0  0  0  0
  4 19  1  0  0  0  0
 21 22  1  0  0  0  0
 21 26  2  0  0  0  0
 22 23  2  0  0  0  0
 23 24  1  0  0  0  0
 24 25  2  0  0  0  0
 24 29  1  0  0  0  0
 25 26  1  0  0  0  0
 25 28  1  0  0  0  0
 26 27  1  0  0  0  0
  8 22  1  0  0  0  0
  7 30  1  0  0  0  0
M  END
> <score_Kier2>
0.516481

$$$$
suggested molecule #300
 MOE2019            2D

 30 33  0  0  0  0  0  0  0  0999 V2000
    3.4992   -1.2833    0.0000 C   0  0  0  0  0  0  0  0  0  1  0  0
    4.9992   -1.2762    0.0000 C   0  0  0  0  0  0  0  0  0  2  0  0
    5.7430    0.0263    0.0000 C   0  0  0  0  0  0  0  0  0  3  0  0
    4.9869    1.3218    0.0000 C   0  0  0  0  0  0  0  0  0  4  0  0
    3.4870    1.3147    0.0000 C   0  0  0  0  0  0  0  0  0  5  0  0
    2.7431    0.0122    0.0000 C   0  0  0  0  0  0  0  0  0  6  0  0
    1.2431    0.0051    0.0000 C   0  0  0  0  0  0  0  0  0  7  0  0
    0.4870    1.3006    0.0000 C   0  0  0  0  0  0  0  0  0  8  0  0
    1.2309    2.6032    0.0000 C   0  0  0  0  0  0  0  0  0  9  0  0
    0.4748    3.8987    0.0000 O   0  0  0  0  0  0  0  0  0 10  0  0
    2.7309    2.6102    0.0000 O   0  0  0  0  0  0  0  0  0 11  0  0
    2.9041   -2.3253    0.0000 H   0  0  0  0  0  0  0  0  0  0  0  0
    9.3017   -2.0060    0.0000 C   0  0  0  0  0  0  0  0  0  0  0  0
    7.9991   -1.2621    0.0000 C   0  0  0  0  0  0  0  0  0  0  0  0
    7.2552   -2.5647    0.0000 C   0  0  0  0  0  0  0  0  0  0  0  0
    5.7553   -2.5717    0.0000 C   0  0  0  0  0  0  0  0  0  0  0  0
    7.2430    0.0334    0.0000 O   0  0  0  0  0  0  0  0  0  0  0  0
    9.2946   -0.5060    0.0000 C   0  0  0  0  0  0  0  0  0  0  0  0
    5.7308    2.6244    0.0000 O   0  0  0  0  0  0  0  0  0  0  0  0
    7.2308    2.6314    0.0000 C   0  0  0  0  0  0  0  0  0  0  0  0
   -1.7691    2.5891    0.0000 C   0  0  0  0  0  0  0  0  0  0  0  0
   -1.0130    1.2936    0.0000 C   0  0  0  0  0  0  0  0  0  0  0  0
   -1.7569   -0.0090    0.0000 C   0  0  0  0  0  0  0  0  0  0  0  0
   -3.2569   -0.0160    0.0000 C   0  0  0  0  0  0  0  0  0  0  0  0
   -4.0130    1.2795    0.0000 C   0  0  0  0  0  0  0  0  0  0  0  0
   -3.2691    2.5820    0.0000 C   0  0  0  0  0  0  0  0  0  0  0  0
   -4.0252    3.8775    0.0000 O   0  0  0  0  0  0  0  0  0  0  0  0
   -5.5129    1.2724    0.0000 O   0  0  0  0  0  0  0  0  0  0  0  0
   -4.0007   -1.3186    0.0000 O   0  0  0  0  0  0  0  0  0  0  0  0
    0.6480   -1.0369    0.0000 H   0  0  0  0  0  0  0  0  0  0  0  0
  1  2  1  0  0  0  0
  1  6  2  0  0  0  0
  2  3  2  0  0  0  0
  3  4  1  0  0  0  0
  4  5  2  0  0  0  0
  5  6  1  0  0  0  0
  5 11  1  0  0  0  0
  6  7  1  0  0  0  0
  7  8  2  0  0  0  0
  8  9  1  0  0  0  0
  9 10  2  0  0  0  0
  9 11  1  0  0  0  0
  1 12  1  0  0  0  0
 13 14  1  0  0  0  0
 14 15  1  0  0  0  0
 14 17  1  0  0  0  0
 14 18  1  0  0  0  0
 15 16  2  0  0  0  0
  2 16  1  0  0  0  0
  3 17  1  0  0  0  0
 19 20  1  0  0  0  0
  4 19  1  0  0  0  0
 21 22  1  0  0  0  0
 21 26  2  0  0  0  0
 22 23  2  0  0  0  0
 23 24  1  0  0  0  0
 24 25  2  0  0  0  0
 24 29  1  0  0  0  0
 25 26  1  0  0  0  0
 25 28  1  0  0  0  0
 26 27  1  0  0  0  0
  8 22  1  0  0  0  0
  7 30  1  0  0  0  0
M  END
> <score_Kier3>
0.511486

$$$$
suggested molecule #301
 MOE2019            2D

 30 33  0  0  0  0  0  0  0  0999 V2000
    3.4992   -1.2833    0.0000 C   0  0  0  0  0  0  0  0  0  1  0  0
    4.9992   -1.2762    0.0000 C   0  0  0  0  0  0  0  0  0  2  0  0
    5.7430    0.0263    0.0000 C   0  0  0  0  0  0  0  0  0  3  0  0
    4.9869    1.3218    0.0000 C   0  0  0  0  0  0  0  0  0  4  0  0
    3.4870    1.3147    0.0000 C   0  0  0  0  0  0  0  0  0  5  0  0
    2.7431    0.0122    0.0000 C   0  0  0  0  0  0  0  0  0  6  0  0
    1.2431    0.0051    0.0000 C   0  0  0  0  0  0  0  0  0  7  0  0
    0.4870    1.3006    0.0000 C   0  0  0  0  0  0  0  0  0  8  0  0
    1.2309    2.6032    0.0000 C   0  0  0  0  0  0  0  0  0  9  0  0
    0.4748    3.8987    0.0000 O   0  0  0  0  0  0  0  0  0 10  0  0
    2.7309    2.6102    0.0000 O   0  0  0  0  0  0  0  0  0 11  0  0
    2.9041   -2.3253    0.0000 H   0  0  0  0  0  0  0  0  0  0  0  0
    9.3017   -2.0060    0.0000 C   0  0  0  0  0  0  0  0  0  0  0  0
    7.9991   -1.2621    0.0000 C   0  0  0  0  0  0  0  0  0  0  0  0
    7.2552   -2.5647    0.0000 C   0  0  0  0  0  0  0  0  0  0  0  0
    5.7553   -2.5717    0.0000 C   0  0  0  0  0  0  0  0  0  0  0  0
    7.2430    0.0334    0.0000 O   0  0  0  0  0  0  0  0  0  0  0  0
    9.2946   -0.5060    0.0000 C   0  0  0  0  0  0  0  0  0  0  0  0
    5.7308    2.6244    0.0000 O   0  0  0  0  0  0  0  0  0  0  0  0
    7.2308    2.6314    0.0000 C   0  0  0  0  0  0  0  0  0  0  0  0
   -1.7691    2.5891    0.0000 C   0  0  0  0  0  0  0  0  0  0  0  0
   -1.0130    1.2936    0.0000 C   0  0  0  0  0  0  0  0  0  0  0  0
   -1.7569   -0.0090    0.0000 C   0  0  0  0  0  0  0  0  0  0  0  0
   -3.2569   -0.0160    0.0000 C   0  0  0  0  0  0  0  0  0  0  0  0
   -4.0130    1.2795    0.0000 C   0  0  0  0  0  0  0  0  0  0  0  0
   -3.2691    2.5820    0.0000 C   0  0  0  0  0  0  0  0  0  0  0  0
   -4.0252    3.8775    0.0000 O   0  0  0  0  0  0  0  0  0  0  0  0
   -5.5129    1.2724    0.0000 O   0  0  0  0  0  0  0  0  0  0  0  0
   -4.0007   -1.3186    0.0000 O   0  0  0  0  0  0  0  0  0  0  0  0
    0.6480   -1.0369    0.0000 H   0  0  0  0  0  0  0  0  0  0  0  0
  1  2  1  0  0  0  0
  1  6  2  0  0  0  0
  2  3  2  0  0  0  0
  3  4  1  0  0  0  0
  4  5  2  0  0  0  0
  5  6  1  0  0  0  0
  5 11  1  0  0  0  0
  6  7  1  0  0  0  0
  7  8  2  0  0  0  0
  8  9  1  0  0  0  0
  9 10  2  0  0  0  0
  9 11  1  0  0  0  0
  1 12  1  0  0  0  0
 13 14  1  0  0  0  0
 14 15  1  0  0  0  0
 14 17  1  0  0  0  0
 14 18  1  0  0  0  0
 15 16  2  0  0  0  0
  2 16  1  0  0  0  0
  3 17  1  0  0  0  0
 19 20  1  0  0  0  0
  4 19  1  0  0  0  0
 21 22  1  0  0  0  0
 21 26  2  0  0  0  0
 22 23  2  0  0  0  0
 23 24  1  0  0  0  0
 24 25  2  0  0  0  0
 24 29  1  0  0  0  0
 25 26  1  0  0  0  0
 25 28  1  0  0  0  0
 26 27  1  0  0  0  0
  8 22  1  0  0  0  0
  7 30  1  0  0  0  0
M  END
> <score_KierA1>
0.517646

$$$$
suggested molecule #302
 MOE2019            2D

 30 33  0  0  0  0  0  0  0  0999 V2000
    3.4992   -1.2833    0.0000 C   0  0  0  0  0  0  0  0  0  1  0  0
    4.9992   -1.2762    0.0000 C   0  0  0  0  0  0  0  0  0  2  0  0
    5.7430    0.0263    0.0000 C   0  0  0  0  0  0  0  0  0  3  0  0
    4.9869    1.3218    0.0000 C   0  0  0  0  0  0  0  0  0  4  0  0
    3.4870    1.3147    0.0000 C   0  0  0  0  0  0  0  0  0  5  0  0
    2.7431    0.0122    0.0000 C   0  0  0  0  0  0  0  0  0  6  0  0
    1.2431    0.0051    0.0000 C   0  0  0  0  0  0  0  0  0  7  0  0
    0.4870    1.3006    0.0000 C   0  0  0  0  0  0  0  0  0  8  0  0
    1.2309    2.6032    0.0000 C   0  0  0  0  0  0  0  0  0  9  0  0
    0.4748    3.8987    0.0000 O   0  0  0  0  0  0  0  0  0 10  0  0
    2.7309    2.6102    0.0000 O   0  0  0  0  0  0  0  0  0 11  0  0
    2.9041   -2.3253    0.0000 H   0  0  0  0  0  0  0  0  0  0  0  0
    9.3017   -2.0060    0.0000 C   0  0  0  0  0  0  0  0  0  0  0  0
    7.9991   -1.2621    0.0000 C   0  0  0  0  0  0  0  0  0  0  0  0
    7.2552   -2.5647    0.0000 C   0  0  0  0  0  0  0  0  0  0  0  0
    5.7553   -2.5717    0.0000 C   0  0  0  0  0  0  0  0  0  0  0  0
    7.2430    0.0334    0.0000 O   0  0  0  0  0  0  0  0  0  0  0  0
    9.2946   -0.5060    0.0000 C   0  0  0  0  0  0  0  0  0  0  0  0
    5.7308    2.6244    0.0000 O   0  0  0  0  0  0  0  0  0  0  0  0
    7.2308    2.6314    0.0000 C   0  0  0  0  0  0  0  0  0  0  0  0
   -1.7691    2.5891    0.0000 C   0  0  0  0  0  0  0  0  0  0  0  0
   -1.0130    1.2936    0.0000 C   0  0  0  0  0  0  0  0  0  0  0  0
   -1.7569   -0.0090    0.0000 C   0  0  0  0  0  0  0  0  0  0  0  0
   -3.2569   -0.0160    0.0000 C   0  0  0  0  0  0  0  0  0  0  0  0
   -4.0130    1.2795    0.0000 C   0  0  0  0  0  0  0  0  0  0  0  0
   -3.2691    2.5820    0.0000 C   0  0  0  0  0  0  0  0  0  0  0  0
   -4.0252    3.8775    0.0000 O   0  0  0  0  0  0  0  0  0  0  0  0
   -5.5129    1.2724    0.0000 O   0  0  0  0  0  0  0  0  0  0  0  0
   -4.0007   -1.3186    0.0000 O   0  0  0  0  0  0  0  0  0  0  0  0
    0.6480   -1.0369    0.0000 H   0  0  0  0  0  0  0  0  0  0  0  0
  1  2  1  0  0  0  0
  1  6  2  0  0  0  0
  2  3  2  0  0  0  0
  3  4  1  0  0  0  0
  4  5  2  0  0  0  0
  5  6  1  0  0  0  0
  5 11  1  0  0  0  0
  6  7  1  0  0  0  0
  7  8  2  0  0  0  0
  8  9  1  0  0  0  0
  9 10  2  0  0  0  0
  9 11  1  0  0  0  0
  1 12  1  0  0  0  0
 13 14  1  0  0  0  0
 14 15  1  0  0  0  0
 14 17  1  0  0  0  0
 14 18  1  0  0  0  0
 15 16  2  0  0  0  0
  2 16  1  0  0  0  0
  3 17  1  0  0  0  0
 19 20  1  0  0  0  0
  4 19  1  0  0  0  0
 21 22  1  0  0  0  0
 21 26  2  0  0  0  0
 22 23  2  0  0  0  0
 23 24  1  0  0  0  0
 24 25  2  0  0  0  0
 24 29  1  0  0  0  0
 25 26  1  0  0  0  0
 25 28  1  0  0  0  0
 26 27  1  0  0  0  0
  8 22  1  0  0  0  0
  7 30  1  0  0  0  0
M  END
> <score_KierA2>
0.516755

$$$$
suggested molecule #303
 MOE2019            2D

 30 33  0  0  0  0  0  0  0  0999 V2000
    3.4992   -1.2833    0.0000 C   0  0  0  0  0  0  0  0  0  1  0  0
    4.9992   -1.2762    0.0000 C   0  0  0  0  0  0  0  0  0  2  0  0
    5.7430    0.0263    0.0000 C   0  0  0  0  0  0  0  0  0  3  0  0
    4.9869    1.3218    0.0000 C   0  0  0  0  0  0  0  0  0  4  0  0
    3.4870    1.3147    0.0000 C   0  0  0  0  0  0  0  0  0  5  0  0
    2.7431    0.0122    0.0000 C   0  0  0  0  0  0  0  0  0  6  0  0
    1.2431    0.0051    0.0000 C   0  0  0  0  0  0  0  0  0  7  0  0
    0.4870    1.3006    0.0000 C   0  0  0  0  0  0  0  0  0  8  0  0
    1.2309    2.6032    0.0000 C   0  0  0  0  0  0  0  0  0  9  0  0
    0.4748    3.8987    0.0000 O   0  0  0  0  0  0  0  0  0 10  0  0
    2.7309    2.6102    0.0000 O   0  0  0  0  0  0  0  0  0 11  0  0
    2.9041   -2.3253    0.0000 H   0  0  0  0  0  0  0  0  0  0  0  0
    9.3017   -2.0060    0.0000 C   0  0  0  0  0  0  0  0  0  0  0  0
    7.9991   -1.2621    0.0000 C   0  0  0  0  0  0  0  0  0  0  0  0
    7.2552   -2.5647    0.0000 C   0  0  0  0  0  0  0  0  0  0  0  0
    5.7553   -2.5717    0.0000 C   0  0  0  0  0  0  0  0  0  0  0  0
    7.2430    0.0334    0.0000 O   0  0  0  0  0  0  0  0  0  0  0  0
    9.2946   -0.5060    0.0000 C   0  0  0  0  0  0  0  0  0  0  0  0
    5.7308    2.6244    0.0000 O   0  0  0  0  0  0  0  0  0  0  0  0
    7.2308    2.6314    0.0000 C   0  0  0  0  0  0  0  0  0  0  0  0
   -1.7691    2.5891    0.0000 C   0  0  0  0  0  0  0  0  0  0  0  0
   -1.0130    1.2936    0.0000 C   0  0  0  0  0  0  0  0  0  0  0  0
   -1.7569   -0.0090    0.0000 C   0  0  0  0  0  0  0  0  0  0  0  0
   -3.2569   -0.0160    0.0000 C   0  0  0  0  0  0  0  0  0  0  0  0
   -4.0130    1.2795    0.0000 C   0  0  0  0  0  0  0  0  0  0  0  0
   -3.2691    2.5820    0.0000 C   0  0  0  0  0  0  0  0  0  0  0  0
   -4.0252    3.8775    0.0000 O   0  0  0  0  0  0  0  0  0  0  0  0
   -5.5129    1.2724    0.0000 O   0  0  0  0  0  0  0  0  0  0  0  0
   -4.0007   -1.3186    0.0000 O   0  0  0  0  0  0  0  0  0  0  0  0
    0.6480   -1.0369    0.0000 H   0  0  0  0  0  0  0  0  0  0  0  0
  1  2  1  0  0  0  0
  1  6  2  0  0  0  0
  2  3  2  0  0  0  0
  3  4  1  0  0  0  0
  4  5  2  0  0  0  0
  5  6  1  0  0  0  0
  5 11  1  0  0  0  0
  6  7  1  0  0  0  0
  7  8  2  0  0  0  0
  8  9  1  0  0  0  0
  9 10  2  0  0  0  0
  9 11  1  0  0  0  0
  1 12  1  0  0  0  0
 13 14  1  0  0  0  0
 14 15  1  0  0  0  0
 14 17  1  0  0  0  0
 14 18  1  0  0  0  0
 15 16  2  0  0  0  0
  2 16  1  0  0  0  0
  3 17  1  0  0  0  0
 19 20  1  0  0  0  0
  4 19  1  0  0  0  0
 21 22  1  0  0  0  0
 21 26  2  0  0  0  0
 22 23  2  0  0  0  0
 23 24  1  0  0  0  0
 24 25  2  0  0  0  0
 24 29  1  0  0  0  0
 25 26  1  0  0  0  0
 25 28  1  0  0  0  0
 26 27  1  0  0  0  0
  8 22  1  0  0  0  0
  7 30  1  0  0  0  0
M  END
> <score_KierFlex>
0.516323

$$$$
suggested molecule #304
 MOE2019            2D

 33 36  0  0  1  0  0  0  0  0999 V2000
    3.4992   -1.2833    0.0000 C   0  0  0  0  0  0  0  0  0  1  0  0
    4.9992   -1.2762    0.0000 C   0  0  0  0  0  0  0  0  0  2  0  0
    5.7430    0.0263    0.0000 C   0  0  0  0  0  0  0  0  0  3  0  0
    4.9869    1.3218    0.0000 C   0  0  0  0  0  0  0  0  0  4  0  0
    3.4870    1.3147    0.0000 C   0  0  0  0  0  0  0  0  0  5  0  0
    2.7431    0.0122    0.0000 C   0  0  0  0  0  0  0  0  0  6  0  0
    1.2431    0.0051    0.0000 C   0  0  0  0  0  0  0  0  0  7  0  0
    0.4870    1.3006    0.0000 C   0  0  0  0  0  0  0  0  0  8  0  0
    1.2309    2.6032    0.0000 C   0  0  0  0  0  0  0  0  0  9  0  0
    0.4748    3.8987    0.0000 O   0  0  0  0  0  0  0  0  0 10  0  0
    2.7309    2.6102    0.0000 O   0  0  0  0  0  0  0  0  0 11  0  0
    2.9041   -2.3253    0.0000 H   0  0  0  0  0  0  0  0  0  0  0  0
    9.3017   -2.0060    0.0000 C   0  0  0  0  0  0  0  0  0  0  0  0
    7.9991   -1.2621    0.0000 C   0  0  0  0  0  0  0  0  0  0  0  0
    7.2552   -2.5647    0.0000 C   0  0  0  0  0  0  0  0  0  0  0  0
    5.7553   -2.5717    0.0000 C   0  0  0  0  0  0  0  0  0  0  0  0
    7.2430    0.0334    0.0000 O   0  0  0  0  0  0  0  0  0  0  0  0
    9.2946   -0.5060    0.0000 C   0  0  0  0  0  0  0  0  0  0  0  0
    5.7308    2.6244    0.0000 O   0  0  0  0  0  0  0  0  0  0  0  0
    4.9747    3.9198    0.0000 C   0  0  0  0  0  0  0  0  0  0  0  0
   -1.0130    1.2936    0.0000 O   0  0  0  0  0  0  0  0  0  0  0  0
   -1.7569   -0.0090    0.0000 C   0  0  1  0  0  0  0  0  0  0  0  0
   -3.2569   -0.0160    0.0000 C   0  0  1  0  0  0  0  0  0  0  0  0
   -4.0007   -1.3186    0.0000 C   0  0  2  0  0  0  0  0  0  0  0  0
   -3.2446   -2.6141    0.0000 C   0  0  2  0  0  0  0  0  0  0  0  0
   -1.7447   -2.6070    0.0000 C   0  0  2  0  0  0  0  0  0  0  0  0
   -1.0008   -1.3045    0.0000 O   0  0  0  0  0  0  0  0  0  0  0  0
   -0.9886   -3.9025    0.0000 C   0  0  0  0  0  0  0  0  0  0  0  0
   -1.7324   -5.2051    0.0000 O   0  0  0  0  0  0  0  0  0  0  0  0
   -3.9885   -3.9166    0.0000 O   0  0  0  0  0  0  0  0  0  0  0  0
   -5.5007   -1.3256    0.0000 O   0  0  0  0  0  0  0  0  0  0  0  0
   -4.0130    1.2795    0.0000 O   0  0  0  0  0  0  0  0  0  0  0  0
    0.6480   -1.0369    0.0000 H   0  0  0  0  0  0  0  0  0  0  0  0
  1  2  2  0  0  0  0
  1  6  1  0  0  0  0
  2  3  1  0  0  0  0
  3  4  2  0  0  0  0
  4  5  1  0  0  0  0
  5  6  2  0  0  0  0
  5 11  1  0  0  0  0
  6  7  1  0  0  0  0
  7  8  2  0  0  0  0
  8  9  1  0  0  0  0
  9 10  2  0  0  0  0
  9 11  1  0  0  0  0
  1 12  1  0  0  0  0
 13 14  1  0  0  0  0
 14 15  1  0  0  0  0
 14 17  1  0  0  0  0
 14 18  1  0  0  0  0
 15 16  2  0  0  0  0
  2 16  1  0  0  0  0
  3 17  1  0  0  0  0
 19 20  1  0  0  0  0
  4 19  1  0  0  0  0
 22 21  1  1  0  0  0
 22 23  1  0  0  0  0
 22 27  1  0  0  0  0
 23 24  1  0  0  0  0
 23 32  1  6  0  0  0
 24 25  1  0  0  0  0
 24 31  1  1  0  0  0
 25 26  1  0  0  0  0
 25 30  1  1  0  0  0
 26 27  1  0  0  0  0
 26 28  1  1  0  0  0
 28 29  1  0  0  0  0
  8 21  1  0  0  0  0
  7 33  1  0  0  0  0
M  END
> <score_KierA1>
0.517583

$$$$
suggested molecule #305
 MOE2019            2D

 22 24  0  0  0  0  0  0  0  0999 V2000
    3.4992   -1.2833    0.0000 C   0  0  0  0  0  0  0  0  0  1  0  0
    4.9992   -1.2762    0.0000 C   0  0  0  0  0  0  0  0  0  2  0  0
    5.7430    0.0263    0.0000 C   0  0  0  0  0  0  0  0  0  3  0  0
    4.9869    1.3218    0.0000 C   0  0  0  0  0  0  0  0  0  4  0  0
    3.4870    1.3147    0.0000 C   0  0  0  0  0  0  0  0  0  5  0  0
    2.7431    0.0122    0.0000 C   0  0  0  0  0  0  0  0  0  6  0  0
    1.2431    0.0051    0.0000 C   0  0  0  0  0  0  0  0  0  7  0  0
    0.4870    1.3006    0.0000 C   0  0  0  0  0  0  0  0  0  8  0  0
    1.2309    2.6032    0.0000 C   0  0  0  0  0  0  0  0  0  9  0  0
    0.4748    3.8987    0.0000 O   0  0  0  0  0  0  0  0  0 10  0  0
    2.7309    2.6102    0.0000 O   0  0  0  0  0  0  0  0  0 11  0  0
    2.9041   -2.3253    0.0000 H   0  0  0  0  0  0  0  0  0  0  0  0
    9.3017   -2.0060    0.0000 C   0  0  0  0  0  0  0  0  0  0  0  0
    7.9991   -1.2621    0.0000 C   0  0  0  0  0  0  0  0  0  0  0  0
    7.2552   -2.5647    0.0000 C   0  0  0  0  0  0  0  0  0  0  0  0
    5.7553   -2.5717    0.0000 C   0  0  0  0  0  0  0  0  0  0  0  0
    7.2430    0.0334    0.0000 O   0  0  0  0  0  0  0  0  0  0  0  0
    9.2946   -0.5060    0.0000 C   0  0  0  0  0  0  0  0  0  0  0  0
    5.7308    2.6244    0.0000 O   0  0  0  0  0  0  0  0  0  0  0  0
    4.9747    3.9198    0.0000 C   0  0  0  0  0  0  0  0  0  0  0  0
   -1.0130    1.2936    0.0000 O   0  0  0  0  0  0  0  0  0  0  0  0
    0.6480   -1.0369    0.0000 H   0  0  0  0  0  0  0  0  0  0  0  0
  1  2  1  0  0  0  0
  1  6  2  0  0  0  0
  2  3  2  0  0  0  0
  3  4  1  0  0  0  0
  4  5  2  0  0  0  0
  5  6  1  0  0  0  0
  5 11  1  0  0  0  0
  6  7  1  0  0  0  0
  7  8  2  0  0  0  0
  8  9  1  0  0  0  0
  9 10  2  0  0  0  0
  9 11  1  0  0  0  0
  1 12  1  0  0  0  0
 13 14  1  0  0  0  0
 14 15  1  0  0  0  0
 14 17  1  0  0  0  0
 14 18  1  0  0  0  0
 15 16  2  0  0  0  0
  2 16  1  0  0  0  0
  3 17  1  0  0  0  0
 19 20  1  0  0  0  0
  4 19  1  0  0  0  0
  8 21  1  0  0  0  0
  7 22  1  0  0  0  0
M  END
> <score_Kier1>
0.517729

$$$$
suggested molecule #306
 MOE2019            2D

 22 24  0  0  0  0  0  0  0  0999 V2000
    3.4992   -1.2833    0.0000 C   0  0  0  0  0  0  0  0  0  1  0  0
    4.9992   -1.2762    0.0000 C   0  0  0  0  0  0  0  0  0  2  0  0
    5.7430    0.0263    0.0000 C   0  0  0  0  0  0  0  0  0  3  0  0
    4.9869    1.3218    0.0000 C   0  0  0  0  0  0  0  0  0  4  0  0
    3.4870    1.3147    0.0000 C   0  0  0  0  0  0  0  0  0  5  0  0
    2.7431    0.0122    0.0000 C   0  0  0  0  0  0  0  0  0  6  0  0
    1.2431    0.0051    0.0000 C   0  0  0  0  0  0  0  0  0  7  0  0
    0.4870    1.3006    0.0000 C   0  0  0  0  0  0  0  0  0  8  0  0
    1.2309    2.6032    0.0000 C   0  0  0  0  0  0  0  0  0  9  0  0
    0.4748    3.8987    0.0000 O   0  0  0  0  0  0  0  0  0 10  0  0
    2.7309    2.6102    0.0000 O   0  0  0  0  0  0  0  0  0 11  0  0
    2.9041   -2.3253    0.0000 H   0  0  0  0  0  0  0  0  0  0  0  0
    9.3017   -2.0060    0.0000 C   0  0  0  0  0  0  0  0  0  0  0  0
    7.9991   -1.2621    0.0000 C   0  0  0  0  0  0  0  0  0  0  0  0
    7.2552   -2.5647    0.0000 C   0  0  0  0  0  0  0  0  0  0  0  0
    5.7553   -2.5717    0.0000 C   0  0  0  0  0  0  0  0  0  0  0  0
    7.2430    0.0334    0.0000 O   0  0  0  0  0  0  0  0  0  0  0  0
    9.2946   -0.5060    0.0000 C   0  0  0  0  0  0  0  0  0  0  0  0
    5.7308    2.6244    0.0000 O   0  0  0  0  0  0  0  0  0  0  0  0
    4.9747    3.9198    0.0000 C   0  0  0  0  0  0  0  0  0  0  0  0
   -1.0130    1.2936    0.0000 O   0  0  0  0  0  0  0  0  0  0  0  0
    0.6480   -1.0369    0.0000 H   0  0  0  0  0  0  0  0  0  0  0  0
  1  2  1  0  0  0  0
  1  6  2  0  0  0  0
  2  3  2  0  0  0  0
  3  4  1  0  0  0  0
  4  5  2  0  0  0  0
  5  6  1  0  0  0  0
  5 11  1  0  0  0  0
  6  7  1  0  0  0  0
  7  8  2  0  0  0  0
  8  9  1  0  0  0  0
  9 10  2  0  0  0  0
  9 11  1  0  0  0  0
  1 12  1  0  0  0  0
 13 14  1  0  0  0  0
 14 15  1  0  0  0  0
 14 17  1  0  0  0  0
 14 18  1  0  0  0  0
 15 16  2  0  0  0  0
  2 16  1  0  0  0  0
  3 17  1  0  0  0  0
 19 20  1  0  0  0  0
  4 19  1  0  0  0  0
  8 21  1  0  0  0  0
  7 22  1  0  0  0  0
M  END
> <score_Kier2>
0.516506

$$$$
suggested molecule #307
 MOE2019            2D

 22 24  0  0  0  0  0  0  0  0999 V2000
    3.4992   -1.2833    0.0000 C   0  0  0  0  0  0  0  0  0  1  0  0
    4.9992   -1.2762    0.0000 C   0  0  0  0  0  0  0  0  0  2  0  0
    5.7430    0.0263    0.0000 C   0  0  0  0  0  0  0  0  0  3  0  0
    4.9869    1.3218    0.0000 C   0  0  0  0  0  0  0  0  0  4  0  0
    3.4870    1.3147    0.0000 C   0  0  0  0  0  0  0  0  0  5  0  0
    2.7431    0.0122    0.0000 C   0  0  0  0  0  0  0  0  0  6  0  0
    1.2431    0.0051    0.0000 C   0  0  0  0  0  0  0  0  0  7  0  0
    0.4870    1.3006    0.0000 C   0  0  0  0  0  0  0  0  0  8  0  0
    1.2309    2.6032    0.0000 C   0  0  0  0  0  0  0  0  0  9  0  0
    0.4748    3.8987    0.0000 O   0  0  0  0  0  0  0  0  0 10  0  0
    2.7309    2.6102    0.0000 O   0  0  0  0  0  0  0  0  0 11  0  0
    2.9041   -2.3253    0.0000 H   0  0  0  0  0  0  0  0  0  0  0  0
    9.3017   -2.0060    0.0000 C   0  0  0  0  0  0  0  0  0  0  0  0
    7.9991   -1.2621    0.0000 C   0  0  0  0  0  0  0  0  0  0  0  0
    7.2552   -2.5647    0.0000 C   0  0  0  0  0  0  0  0  0  0  0  0
    5.7553   -2.5717    0.0000 C   0  0  0  0  0  0  0  0  0  0  0  0
    7.2430    0.0334    0.0000 O   0  0  0  0  0  0  0  0  0  0  0  0
    9.2946   -0.5060    0.0000 C   0  0  0  0  0  0  0  0  0  0  0  0
    5.7308    2.6244    0.0000 O   0  0  0  0  0  0  0  0  0  0  0  0
    4.9747    3.9198    0.0000 C   0  0  0  0  0  0  0  0  0  0  0  0
   -1.0130    1.2936    0.0000 O   0  0  0  0  0  0  0  0  0  0  0  0
    0.6480   -1.0369    0.0000 H   0  0  0  0  0  0  0  0  0  0  0  0
  1  2  1  0  0  0  0
  1  6  2  0  0  0  0
  2  3  2  0  0  0  0
  3  4  1  0  0  0  0
  4  5  2  0  0  0  0
  5  6  1  0  0  0  0
  5 11  1  0  0  0  0
  6  7  1  0  0  0  0
  7  8  2  0  0  0  0
  8  9  1  0  0  0  0
  9 10  2  0  0  0  0
  9 11  1  0  0  0  0
  1 12  1  0  0  0  0
 13 14  1  0  0  0  0
 14 15  1  0  0  0  0
 14 17  1  0  0  0  0
 14 18  1  0  0  0  0
 15 16  2  0  0  0  0
  2 16  1  0  0  0  0
  3 17  1  0  0  0  0
 19 20  1  0  0  0  0
  4 19  1  0  0  0  0
  8 21  1  0  0  0  0
  7 22  1  0  0  0  0
M  END
> <score_Kier3>
0.511625

$$$$
suggested molecule #308
 MOE2019            2D

 22 24  0  0  0  0  0  0  0  0999 V2000
    3.4992   -1.2833    0.0000 C   0  0  0  0  0  0  0  0  0  1  0  0
    4.9992   -1.2762    0.0000 C   0  0  0  0  0  0  0  0  0  2  0  0
    5.7430    0.0263    0.0000 C   0  0  0  0  0  0  0  0  0  3  0  0
    4.9869    1.3218    0.0000 C   0  0  0  0  0  0  0  0  0  4  0  0
    3.4870    1.3147    0.0000 C   0  0  0  0  0  0  0  0  0  5  0  0
    2.7431    0.0122    0.0000 C   0  0  0  0  0  0  0  0  0  6  0  0
    1.2431    0.0051    0.0000 C   0  0  0  0  0  0  0  0  0  7  0  0
    0.4870    1.3006    0.0000 C   0  0  0  0  0  0  0  0  0  8  0  0
    1.2309    2.6032    0.0000 C   0  0  0  0  0  0  0  0  0  9  0  0
    0.4748    3.8987    0.0000 O   0  0  0  0  0  0  0  0  0 10  0  0
    2.7309    2.6102    0.0000 O   0  0  0  0  0  0  0  0  0 11  0  0
    2.9041   -2.3253    0.0000 H   0  0  0  0  0  0  0  0  0  0  0  0
    9.3017   -2.0060    0.0000 C   0  0  0  0  0  0  0  0  0  0  0  0
    7.9991   -1.2621    0.0000 C   0  0  0  0  0  0  0  0  0  0  0  0
    7.2552   -2.5647    0.0000 C   0  0  0  0  0  0  0  0  0  0  0  0
    5.7553   -2.5717    0.0000 C   0  0  0  0  0  0  0  0  0  0  0  0
    7.2430    0.0334    0.0000 O   0  0  0  0  0  0  0  0  0  0  0  0
    9.2946   -0.5060    0.0000 C   0  0  0  0  0  0  0  0  0  0  0  0
    5.7308    2.6244    0.0000 O   0  0  0  0  0  0  0  0  0  0  0  0
    4.9747    3.9198    0.0000 C   0  0  0  0  0  0  0  0  0  0  0  0
   -1.0130    1.2936    0.0000 O   0  0  0  0  0  0  0  0  0  0  0  0
    0.6480   -1.0369    0.0000 H   0  0  0  0  0  0  0  0  0  0  0  0
  1  2  1  0  0  0  0
  1  6  2  0  0  0  0
  2  3  2  0  0  0  0
  3  4  1  0  0  0  0
  4  5  2  0  0  0  0
  5  6  1  0  0  0  0
  5 11  1  0  0  0  0
  6  7  1  0  0  0  0
  7  8  2  0  0  0  0
  8  9  1  0  0  0  0
  9 10  2  0  0  0  0
  9 11  1  0  0  0  0
  1 12  1  0  0  0  0
 13 14  1  0  0  0  0
 14 15  1  0  0  0  0
 14 17  1  0  0  0  0
 14 18  1  0  0  0  0
 15 16  2  0  0  0  0
  2 16  1  0  0  0  0
  3 17  1  0  0  0  0
 19 20  1  0  0  0  0
  4 19  1  0  0  0  0
  8 21  1  0  0  0  0
  7 22  1  0  0  0  0
M  END
> <score_KierA1>
0.517728

$$$$
suggested molecule #309
 MOE2019            2D

 22 24  0  0  0  0  0  0  0  0999 V2000
    3.4992   -1.2833    0.0000 C   0  0  0  0  0  0  0  0  0  1  0  0
    4.9992   -1.2762    0.0000 C   0  0  0  0  0  0  0  0  0  2  0  0
    5.7430    0.0263    0.0000 C   0  0  0  0  0  0  0  0  0  3  0  0
    4.9869    1.3218    0.0000 C   0  0  0  0  0  0  0  0  0  4  0  0
    3.4870    1.3147    0.0000 C   0  0  0  0  0  0  0  0  0  5  0  0
    2.7431    0.0122    0.0000 C   0  0  0  0  0  0  0  0  0  6  0  0
    1.2431    0.0051    0.0000 C   0  0  0  0  0  0  0  0  0  7  0  0
    0.4870    1.3006    0.0000 C   0  0  0  0  0  0  0  0  0  8  0  0
    1.2309    2.6032    0.0000 C   0  0  0  0  0  0  0  0  0  9  0  0
    0.4748    3.8987    0.0000 O   0  0  0  0  0  0  0  0  0 10  0  0
    2.7309    2.6102    0.0000 O   0  0  0  0  0  0  0  0  0 11  0  0
    2.9041   -2.3253    0.0000 H   0  0  0  0  0  0  0  0  0  0  0  0
    9.3017   -2.0060    0.0000 C   0  0  0  0  0  0  0  0  0  0  0  0
    7.9991   -1.2621    0.0000 C   0  0  0  0  0  0  0  0  0  0  0  0
    7.2552   -2.5647    0.0000 C   0  0  0  0  0  0  0  0  0  0  0  0
    5.7553   -2.5717    0.0000 C   0  0  0  0  0  0  0  0  0  0  0  0
    7.2430    0.0334    0.0000 O   0  0  0  0  0  0  0  0  0  0  0  0
    9.2946   -0.5060    0.0000 C   0  0  0  0  0  0  0  0  0  0  0  0
    5.7308    2.6244    0.0000 O   0  0  0  0  0  0  0  0  0  0  0  0
    4.9747    3.9198    0.0000 C   0  0  0  0  0  0  0  0  0  0  0  0
   -1.0130    1.2936    0.0000 O   0  0  0  0  0  0  0  0  0  0  0  0
    0.6480   -1.0369    0.0000 H   0  0  0  0  0  0  0  0  0  0  0  0
  1  2  1  0  0  0  0
  1  6  2  0  0  0  0
  2  3  2  0  0  0  0
  3  4  1  0  0  0  0
  4  5  2  0  0  0  0
  5  6  1  0  0  0  0
  5 11  1  0  0  0  0
  6  7  1  0  0  0  0
  7  8  2  0  0  0  0
  8  9  1  0  0  0  0
  9 10  2  0  0  0  0
  9 11  1  0  0  0  0
  1 12  1  0  0  0  0
 13 14  1  0  0  0  0
 14 15  1  0  0  0  0
 14 17  1  0  0  0  0
 14 18  1  0  0  0  0
 15 16  2  0  0  0  0
  2 16  1  0  0  0  0
  3 17  1  0  0  0  0
 19 20  1  0  0  0  0
  4 19  1  0  0  0  0
  8 21  1  0  0  0  0
  7 22  1  0  0  0  0
M  END
> <score_KierA2>
0.516852

$$$$
suggested molecule #310
 MOE2019            2D

 22 24  0  0  0  0  0  0  0  0999 V2000
    3.4992   -1.2833    0.0000 C   0  0  0  0  0  0  0  0  0  1  0  0
    4.9992   -1.2762    0.0000 C   0  0  0  0  0  0  0  0  0  2  0  0
    5.7430    0.0263    0.0000 C   0  0  0  0  0  0  0  0  0  3  0  0
    4.9869    1.3218    0.0000 C   0  0  0  0  0  0  0  0  0  4  0  0
    3.4870    1.3147    0.0000 C   0  0  0  0  0  0  0  0  0  5  0  0
    2.7431    0.0122    0.0000 C   0  0  0  0  0  0  0  0  0  6  0  0
    1.2431    0.0051    0.0000 C   0  0  0  0  0  0  0  0  0  7  0  0
    0.4870    1.3006    0.0000 C   0  0  0  0  0  0  0  0  0  8  0  0
    1.2309    2.6032    0.0000 C   0  0  0  0  0  0  0  0  0  9  0  0
    0.4748    3.8987    0.0000 O   0  0  0  0  0  0  0  0  0 10  0  0
    2.7309    2.6102    0.0000 O   0  0  0  0  0  0  0  0  0 11  0  0
    2.9041   -2.3253    0.0000 H   0  0  0  0  0  0  0  0  0  0  0  0
    9.3017   -2.0060    0.0000 C   0  0  0  0  0  0  0  0  0  0  0  0
    7.9991   -1.2621    0.0000 C   0  0  0  0  0  0  0  0  0  0  0  0
    7.2552   -2.5647    0.0000 C   0  0  0  0  0  0  0  0  0  0  0  0
    5.7553   -2.5717    0.0000 C   0  0  0  0  0  0  0  0  0  0  0  0
    7.2430    0.0334    0.0000 O   0  0  0  0  0  0  0  0  0  0  0  0
    9.2946   -0.5060    0.0000 C   0  0  0  0  0  0  0  0  0  0  0  0
    5.7308    2.6244    0.0000 O   0  0  0  0  0  0  0  0  0  0  0  0
    4.9747    3.9198    0.0000 C   0  0  0  0  0  0  0  0  0  0  0  0
   -1.0130    1.2936    0.0000 O   0  0  0  0  0  0  0  0  0  0  0  0
    0.6480   -1.0369    0.0000 H   0  0  0  0  0  0  0  0  0  0  0  0
  1  2  1  0  0  0  0
  1  6  2  0  0  0  0
  2  3  2  0  0  0  0
  3  4  1  0  0  0  0
  4  5  2  0  0  0  0
  5  6  1  0  0  0  0
  5 11  1  0  0  0  0
  6  7  1  0  0  0  0
  7  8  2  0  0  0  0
  8  9  1  0  0  0  0
  9 10  2  0  0  0  0
  9 11  1  0  0  0  0
  1 12  1  0  0  0  0
 13 14  1  0  0  0  0
 14 15  1  0  0  0  0
 14 17  1  0  0  0  0
 14 18  1  0  0  0  0
 15 16  2  0  0  0  0
  2 16  1  0  0  0  0
  3 17  1  0  0  0  0
 19 20  1  0  0  0  0
  4 19  1  0  0  0  0
  8 21  1  0  0  0  0
  7 22  1  0  0  0  0
M  END
> <score_KierA3>
0.512295

$$$$
suggested molecule #311
 MOE2019            2D

 22 24  0  0  0  0  0  0  0  0999 V2000
    3.4992   -1.2833    0.0000 C   0  0  0  0  0  0  0  0  0  1  0  0
    4.9992   -1.2762    0.0000 C   0  0  0  0  0  0  0  0  0  2  0  0
    5.7430    0.0263    0.0000 C   0  0  0  0  0  0  0  0  0  3  0  0
    4.9869    1.3218    0.0000 C   0  0  0  0  0  0  0  0  0  4  0  0
    3.4870    1.3147    0.0000 C   0  0  0  0  0  0  0  0  0  5  0  0
    2.7431    0.0122    0.0000 C   0  0  0  0  0  0  0  0  0  6  0  0
    1.2431    0.0051    0.0000 C   0  0  0  0  0  0  0  0  0  7  0  0
    0.4870    1.3006    0.0000 C   0  0  0  0  0  0  0  0  0  8  0  0
    1.2309    2.6032    0.0000 C   0  0  0  0  0  0  0  0  0  9  0  0
    0.4748    3.8987    0.0000 O   0  0  0  0  0  0  0  0  0 10  0  0
    2.7309    2.6102    0.0000 O   0  0  0  0  0  0  0  0  0 11  0  0
    2.9041   -2.3253    0.0000 H   0  0  0  0  0  0  0  0  0  0  0  0
    9.3017   -2.0060    0.0000 C   0  0  0  0  0  0  0  0  0  0  0  0
    7.9991   -1.2621    0.0000 C   0  0  0  0  0  0  0  0  0  0  0  0
    7.2552   -2.5647    0.0000 C   0  0  0  0  0  0  0  0  0  0  0  0
    5.7553   -2.5717    0.0000 C   0  0  0  0  0  0  0  0  0  0  0  0
    7.2430    0.0334    0.0000 O   0  0  0  0  0  0  0  0  0  0  0  0
    9.2946   -0.5060    0.0000 C   0  0  0  0  0  0  0  0  0  0  0  0
    5.7308    2.6244    0.0000 O   0  0  0  0  0  0  0  0  0  0  0  0
    4.9747    3.9198    0.0000 C   0  0  0  0  0  0  0  0  0  0  0  0
   -1.0130    1.2936    0.0000 O   0  0  0  0  0  0  0  0  0  0  0  0
    0.6480   -1.0369    0.0000 H   0  0  0  0  0  0  0  0  0  0  0  0
  1  2  1  0  0  0  0
  1  6  2  0  0  0  0
  2  3  2  0  0  0  0
  3  4  1  0  0  0  0
  4  5  2  0  0  0  0
  5  6  1  0  0  0  0
  5 11  1  0  0  0  0
  6  7  1  0  0  0  0
  7  8  2  0  0  0  0
  8  9  1  0  0  0  0
  9 10  2  0  0  0  0
  9 11  1  0  0  0  0
  1 12  1  0  0  0  0
 13 14  1  0  0  0  0
 14 15  1  0  0  0  0
 14 17  1  0  0  0  0
 14 18  1  0  0  0  0
 15 16  2  0  0  0  0
  2 16  1  0  0  0  0
  3 17  1  0  0  0  0
 19 20  1  0  0  0  0
  4 19  1  0  0  0  0
  8 21  1  0  0  0  0
  7 22  1  0  0  0  0
M  END
> <score_KierFlex>
0.516517

$$$$
suggested molecule #312
 MOE2019            2D

 31 34  0  0  1  0  0  0  0  0999 V2000
    3.4992   -1.2833    0.0000 C   0  0  0  0  0  0  0  0  0  1  0  0
    4.9992   -1.2762    0.0000 C   0  0  0  0  0  0  0  0  0  2  0  0
    5.7430    0.0263    0.0000 C   0  0  0  0  0  0  0  0  0  3  0  0
    4.9869    1.3218    0.0000 C   0  0  0  0  0  0  0  0  0  4  0  0
    3.4870    1.3147    0.0000 C   0  0  0  0  0  0  0  0  0  5  0  0
    2.7431    0.0122    0.0000 C   0  0  0  0  0  0  0  0  0  6  0  0
    1.2431    0.0051    0.0000 C   0  0  0  0  0  0  0  0  0  7  0  0
    0.4870    1.3006    0.0000 C   0  0  0  0  0  0  0  0  0  8  0  0
    1.2309    2.6032    0.0000 C   0  0  0  0  0  0  0  0  0  9  0  0
    0.4748    3.8987    0.0000 O   0  0  0  0  0  0  0  0  0 10  0  0
    2.7309    2.6102    0.0000 O   0  0  0  0  0  0  0  0  0 11  0  0
    2.9041   -2.3253    0.0000 H   0  0  0  0  0  0  0  0  0  0  0  0
    9.3017   -2.0060    0.0000 C   0  0  0  0  0  0  0  0  0  0  0  0
    7.9991   -1.2621    0.0000 C   0  0  0  0  0  0  0  0  0  0  0  0
    7.2552   -2.5647    0.0000 C   0  0  0  0  0  0  0  0  0  0  0  0
    5.7553   -2.5717    0.0000 C   0  0  0  0  0  0  0  0  0  0  0  0
    7.2430    0.0334    0.0000 O   0  0  0  0  0  0  0  0  0  0  0  0
    9.2946   -0.5060    0.0000 C   0  0  0  0  0  0  0  0  0  0  0  0
    5.7308    2.6244    0.0000 O   0  0  0  0  0  0  0  0  0  0  0  0
    4.9747    3.9198    0.0000 C   0  0  0  0  0  0  0  0  0  0  0  0
   -1.0130    1.2936    0.0000 O   0  0  0  0  0  0  0  0  0  0  0  0
   -1.7569   -0.0090    0.0000 C   0  0  1  0  0  0  0  0  0  0  0  0
   -3.2479   -0.1728    0.0000 C   0  0  1  0  0  0  0  0  0  0  0  0
   -3.5529   -1.6414    0.0000 C   0  0  2  0  0  0  0  0  0  0  0  0
   -2.2503   -2.3853    0.0000 C   0  0  1  0  0  0  0  0  0  0  0  0
   -1.1403   -1.3764    0.0000 O   0  0  0  0  0  0  0  0  0  0  0  0
   -2.0865   -3.8764    0.0000 C   0  0  0  0  0  0  0  0  0  0  0  0
   -3.2959   -4.7637    0.0000 O   0  0  0  0  0  0  0  0  0  0  0  0
   -4.9203   -2.2580    0.0000 O   0  0  0  0  0  0  0  0  0  0  0  0
   -4.2568    0.9372    0.0000 O   0  0  0  0  0  0  0  0  0  0  0  0
    0.6480   -1.0369    0.0000 H   0  0  0  0  0  0  0  0  0  0  0  0
  1  2  2  0  0  0  0
  1  6  1  0  0  0  0
  2  3  1  0  0  0  0
  3  4  2  0  0  0  0
  4  5  1  0  0  0  0
  5  6  2  0  0  0  0
  5 11  1  0  0  0  0
  6  7  1  0  0  0  0
  7  8  2  0  0  0  0
  8  9  1  0  0  0  0
  9 10  2  0  0  0  0
  9 11  1  0  0  0  0
  1 12  1  0  0  0  0
 13 14  1  0  0  0  0
 14 15  1  0  0  0  0
 14 17  1  0  0  0  0
 14 18  1  0  0  0  0
 15 16  2  0  0  0  0
  2 16  1  0  0  0  0
  3 17  1  0  0  0  0
 19 20  1  0  0  0  0
  4 19  1  0  0  0  0
 22 21  1  1  0  0  0
 22 23  1  0  0  0  0
 22 26  1  0  0  0  0
 23 24  1  0  0  0  0
 23 30  1  6  0  0  0
 24 25  1  0  0  0  0
 24 29  1  1  0  0  0
 25 26  1  0  0  0  0
 25 27  1  6  0  0  0
 27 28  1  0  0  0  0
  8 21  1  0  0  0  0
  7 31  1  0  0  0  0
M  END
> <score_Kier3>
0.511444

$$$$
suggested molecule #313
 MOE2019            2D

 31 34  0  0  1  0  0  0  0  0999 V2000
    3.4992   -1.2833    0.0000 C   0  0  0  0  0  0  0  0  0  1  0  0
    4.9992   -1.2762    0.0000 C   0  0  0  0  0  0  0  0  0  2  0  0
    5.7430    0.0263    0.0000 C   0  0  0  0  0  0  0  0  0  3  0  0
    4.9869    1.3218    0.0000 C   0  0  0  0  0  0  0  0  0  4  0  0
    3.4870    1.3147    0.0000 C   0  0  0  0  0  0  0  0  0  5  0  0
    2.7431    0.0122    0.0000 C   0  0  0  0  0  0  0  0  0  6  0  0
    1.2431    0.0051    0.0000 C   0  0  0  0  0  0  0  0  0  7  0  0
    0.4870    1.3006    0.0000 C   0  0  0  0  0  0  0  0  0  8  0  0
    1.2309    2.6032    0.0000 C   0  0  0  0  0  0  0  0  0  9  0  0
    0.4748    3.8987    0.0000 O   0  0  0  0  0  0  0  0  0 10  0  0
    2.7309    2.6102    0.0000 O   0  0  0  0  0  0  0  0  0 11  0  0
    2.9041   -2.3253    0.0000 H   0  0  0  0  0  0  0  0  0  0  0  0
    9.3017   -2.0060    0.0000 C   0  0  0  0  0  0  0  0  0  0  0  0
    7.9991   -1.2621    0.0000 C   0  0  0  0  0  0  0  0  0  0  0  0
    7.2552   -2.5647    0.0000 C   0  0  0  0  0  0  0  0  0  0  0  0
    5.7553   -2.5717    0.0000 C   0  0  0  0  0  0  0  0  0  0  0  0
    7.2430    0.0334    0.0000 O   0  0  0  0  0  0  0  0  0  0  0  0
    9.2946   -0.5060    0.0000 C   0  0  0  0  0  0  0  0  0  0  0  0
    5.7308    2.6244    0.0000 O   0  0  0  0  0  0  0  0  0  0  0  0
    4.9747    3.9198    0.0000 C   0  0  0  0  0  0  0  0  0  0  0  0
   -1.0130    1.2936    0.0000 O   0  0  0  0  0  0  0  0  0  0  0  0
   -1.7569   -0.0090    0.0000 C   0  0  1  0  0  0  0  0  0  0  0  0
   -3.2479   -0.1728    0.0000 C   0  0  1  0  0  0  0  0  0  0  0  0
   -3.5529   -1.6414    0.0000 C   0  0  2  0  0  0  0  0  0  0  0  0
   -2.2503   -2.3853    0.0000 C   0  0  1  0  0  0  0  0  0  0  0  0
   -1.1403   -1.3764    0.0000 O   0  0  0  0  0  0  0  0  0  0  0  0
   -2.0865   -3.8764    0.0000 C   0  0  0  0  0  0  0  0  0  0  0  0
   -3.2959   -4.7637    0.0000 O   0  0  0  0  0  0  0  0  0  0  0  0
   -4.9203   -2.2580    0.0000 O   0  0  0  0  0  0  0  0  0  0  0  0
   -4.2568    0.9372    0.0000 O   0  0  0  0  0  0  0  0  0  0  0  0
    0.6480   -1.0369    0.0000 H   0  0  0  0  0  0  0  0  0  0  0  0
  1  2  2  0  0  0  0
  1  6  1  0  0  0  0
  2  3  1  0  0  0  0
  3  4  2  0  0  0  0
  4  5  1  0  0  0  0
  5  6  2  0  0  0  0
  5 11  1  0  0  0  0
  6  7  1  0  0  0  0
  7  8  2  0  0  0  0
  8  9  1  0  0  0  0
  9 10  2  0  0  0  0
  9 11  1  0  0  0  0
  1 12  1  0  0  0  0
 13 14  1  0  0  0  0
 14 15  1  0  0  0  0
 14 17  1  0  0  0  0
 14 18  1  0  0  0  0
 15 16  2  0  0  0  0
  2 16  1  0  0  0  0
  3 17  1  0  0  0  0
 19 20  1  0  0  0  0
  4 19  1  0  0  0  0
 22 21  1  1  0  0  0
 22 23  1  0  0  0  0
 22 26  1  0  0  0  0
 23 24  1  0  0  0  0
 23 30  1  6  0  0  0
 24 25  1  0  0  0  0
 24 29  1  1  0  0  0
 25 26  1  0  0  0  0
 25 27  1  6  0  0  0
 27 28  1  0  0  0  0
  8 21  1  0  0  0  0
  7 31  1  0  0  0  0
M  END
> <score_KierA1>
0.517599

$$$$
suggested molecule #314
 MOE2019            2D

 31 34  0  0  1  0  0  0  0  0999 V2000
    3.4992   -1.2833    0.0000 C   0  0  0  0  0  0  0  0  0  1  0  0
    4.9992   -1.2762    0.0000 C   0  0  0  0  0  0  0  0  0  2  0  0
    5.7430    0.0263    0.0000 C   0  0  0  0  0  0  0  0  0  3  0  0
    4.9869    1.3218    0.0000 C   0  0  0  0  0  0  0  0  0  4  0  0
    3.4870    1.3147    0.0000 C   0  0  0  0  0  0  0  0  0  5  0  0
    2.7431    0.0122    0.0000 C   0  0  0  0  0  0  0  0  0  6  0  0
    1.2431    0.0051    0.0000 C   0  0  0  0  0  0  0  0  0  7  0  0
    0.4870    1.3006    0.0000 C   0  0  0  0  0  0  0  0  0  8  0  0
    1.2309    2.6032    0.0000 C   0  0  0  0  0  0  0  0  0  9  0  0
    0.4748    3.8987    0.0000 O   0  0  0  0  0  0  0  0  0 10  0  0
    2.7309    2.6102    0.0000 O   0  0  0  0  0  0  0  0  0 11  0  0
    2.9041   -2.3253    0.0000 H   0  0  0  0  0  0  0  0  0  0  0  0
    9.3017   -2.0060    0.0000 C   0  0  0  0  0  0  0  0  0  0  0  0
    7.9991   -1.2621    0.0000 C   0  0  0  0  0  0  0  0  0  0  0  0
    7.2552   -2.5647    0.0000 C   0  0  0  0  0  0  0  0  0  0  0  0
    5.7553   -2.5717    0.0000 C   0  0  0  0  0  0  0  0  0  0  0  0
    7.2430    0.0334    0.0000 O   0  0  0  0  0  0  0  0  0  0  0  0
    9.2946   -0.5060    0.0000 C   0  0  0  0  0  0  0  0  0  0  0  0
    5.7308    2.6244    0.0000 O   0  0  0  0  0  0  0  0  0  0  0  0
    4.9747    3.9198    0.0000 C   0  0  0  0  0  0  0  0  0  0  0  0
   -1.0130    1.2936    0.0000 O   0  0  0  0  0  0  0  0  0  0  0  0
   -1.7569   -0.0090    0.0000 C   0  0  1  0  0  0  0  0  0  0  0  0
   -3.2479   -0.1728    0.0000 C   0  0  1  0  0  0  0  0  0  0  0  0
   -3.5529   -1.6414    0.0000 C   0  0  2  0  0  0  0  0  0  0  0  0
   -2.2503   -2.3853    0.0000 C   0  0  1  0  0  0  0  0  0  0  0  0
   -1.1403   -1.3764    0.0000 O   0  0  0  0  0  0  0  0  0  0  0  0
   -2.0865   -3.8764    0.0000 C   0  0  0  0  0  0  0  0  0  0  0  0
   -3.2959   -4.7637    0.0000 O   0  0  0  0  0  0  0  0  0  0  0  0
   -4.9203   -2.2580    0.0000 O   0  0  0  0  0  0  0  0  0  0  0  0
   -4.2568    0.9372    0.0000 O   0  0  0  0  0  0  0  0  0  0  0  0
    0.6480   -1.0369    0.0000 H   0  0  0  0  0  0  0  0  0  0  0  0
  1  2  2  0  0  0  0
  1  6  1  0  0  0  0
  2  3  1  0  0  0  0
  3  4  2  0  0  0  0
  4  5  1  0  0  0  0
  5  6  2  0  0  0  0
  5 11  1  0  0  0  0
  6  7  1  0  0  0  0
  7  8  2  0  0  0  0
  8  9  1  0  0  0  0
  9 10  2  0  0  0  0
  9 11  1  0  0  0  0
  1 12  1  0  0  0  0
 13 14  1  0  0  0  0
 14 15  1  0  0  0  0
 14 17  1  0  0  0  0
 14 18  1  0  0  0  0
 15 16  2  0  0  0  0
  2 16  1  0  0  0  0
  3 17  1  0  0  0  0
 19 20  1  0  0  0  0
  4 19  1  0  0  0  0
 22 21  1  1  0  0  0
 22 23  1  0  0  0  0
 22 26  1  0  0  0  0
 23 24  1  0  0  0  0
 23 30  1  6  0  0  0
 24 25  1  0  0  0  0
 24 29  1  1  0  0  0
 25 26  1  0  0  0  0
 25 27  1  6  0  0  0
 27 28  1  0  0  0  0
  8 21  1  0  0  0  0
  7 31  1  0  0  0  0
M  END
> <score_KierFlex>
0.516267

$$$$
suggested molecule #315
 MOE2019            2D

 25 27  0  0  0  0  0  0  0  0999 V2000
    3.4992   -1.2833    0.0000 C   0  0  0  0  0  0  0  0  0  1  0  0
    4.9992   -1.2762    0.0000 C   0  0  0  0  0  0  0  0  0  2  0  0
    5.7430    0.0263    0.0000 C   0  0  0  0  0  0  0  0  0  3  0  0
    4.9869    1.3218    0.0000 C   0  0  0  0  0  0  0  0  0  4  0  0
    3.4870    1.3147    0.0000 C   0  0  0  0  0  0  0  0  0  5  0  0
    2.7431    0.0122    0.0000 C   0  0  0  0  0  0  0  0  0  6  0  0
    1.2431    0.0051    0.0000 C   0  0  0  0  0  0  0  0  0  7  0  0
    0.4870    1.3006    0.0000 C   0  0  0  0  0  0  0  0  0  8  0  0
    1.2309    2.6032    0.0000 C   0  0  0  0  0  0  0  0  0  9  0  0
    0.4748    3.8987    0.0000 O   0  0  0  0  0  0  0  0  0 10  0  0
    2.7309    2.6102    0.0000 O   0  0  0  0  0  0  0  0  0 11  0  0
    2.9041   -2.3253    0.0000 H   0  0  0  0  0  0  0  0  0  0  0  0
    9.3017   -2.0060    0.0000 C   0  0  0  0  0  0  0  0  0  0  0  0
    7.9991   -1.2621    0.0000 C   0  0  0  0  0  0  0  0  0  0  0  0
    7.2552   -2.5647    0.0000 C   0  0  0  0  0  0  0  0  0  0  0  0
    5.7553   -2.5717    0.0000 C   0  0  0  0  0  0  0  0  0  0  0  0
    7.2430    0.0334    0.0000 O   0  0  0  0  0  0  0  0  0  0  0  0
    9.2946   -0.5060    0.0000 C   0  0  0  0  0  0  0  0  0  0  0  0
    5.7308    2.6244    0.0000 O   0  0  0  0  0  0  0  0  0  0  0  0
    4.9747    3.9198    0.0000 C   0  0  0  0  0  0  0  0  0  0  0  0
   -1.0130    1.2936    0.0000 C   0  0  0  0  0  0  0  0  0  0  0  0
   -1.7569   -0.0090    0.0000 C   0  0  0  0  0  0  0  0  0  0  0  0
   -1.0008   -1.3045    0.0000 O   0  0  0  0  0  0  0  0  0  0  0  0
   -3.2569   -0.0160    0.0000 O   0  0  0  0  0  0  0  0  0  0  0  0
    0.6480   -1.0369    0.0000 H   0  0  0  0  0  0  0  0  0  0  0  0
  1  2  1  0  0  0  0
  1  6  2  0  0  0  0
  2  3  2  0  0  0  0
  3  4  1  0  0  0  0
  4  5  2  0  0  0  0
  5  6  1  0  0  0  0
  5 11  1  0  0  0  0
  6  7  1  0  0  0  0
  7  8  2  0  0  0  0
  8  9  1  0  0  0  0
  9 10  2  0  0  0  0
  9 11  1  0  0  0  0
  1 12  1  0  0  0  0
 13 14  1  0  0  0  0
 14 15  1  0  0  0  0
 14 17  1  0  0  0  0
 14 18  1  0  0  0  0
 15 16  2  0  0  0  0
  2 16  1  0  0  0  0
  3 17  1  0  0  0  0
 19 20  1  0  0  0  0
  4 19  1  0  0  0  0
 21 22  1  0  0  0  0
 22 23  2  0  0  0  0
 22 24  1  0  0  0  0
  8 21  1  0  0  0  0
  7 25  1  0  0  0  0
M  END
> <score_Kier1>
0.517763

$$$$
suggested molecule #316
 MOE2019            2D

 25 27  0  0  0  0  0  0  0  0999 V2000
    3.4992   -1.2833    0.0000 C   0  0  0  0  0  0  0  0  0  1  0  0
    4.9992   -1.2762    0.0000 C   0  0  0  0  0  0  0  0  0  2  0  0
    5.7430    0.0263    0.0000 C   0  0  0  0  0  0  0  0  0  3  0  0
    4.9869    1.3218    0.0000 C   0  0  0  0  0  0  0  0  0  4  0  0
    3.4870    1.3147    0.0000 C   0  0  0  0  0  0  0  0  0  5  0  0
    2.7431    0.0122    0.0000 C   0  0  0  0  0  0  0  0  0  6  0  0
    1.2431    0.0051    0.0000 C   0  0  0  0  0  0  0  0  0  7  0  0
    0.4870    1.3006    0.0000 C   0  0  0  0  0  0  0  0  0  8  0  0
    1.2309    2.6032    0.0000 C   0  0  0  0  0  0  0  0  0  9  0  0
    0.4748    3.8987    0.0000 O   0  0  0  0  0  0  0  0  0 10  0  0
    2.7309    2.6102    0.0000 O   0  0  0  0  0  0  0  0  0 11  0  0
    2.9041   -2.3253    0.0000 H   0  0  0  0  0  0  0  0  0  0  0  0
    9.3017   -2.0060    0.0000 C   0  0  0  0  0  0  0  0  0  0  0  0
    7.9991   -1.2621    0.0000 C   0  0  0  0  0  0  0  0  0  0  0  0
    7.2552   -2.5647    0.0000 C   0  0  0  0  0  0  0  0  0  0  0  0
    5.7553   -2.5717    0.0000 C   0  0  0  0  0  0  0  0  0  0  0  0
    7.2430    0.0334    0.0000 O   0  0  0  0  0  0  0  0  0  0  0  0
    9.2946   -0.5060    0.0000 C   0  0  0  0  0  0  0  0  0  0  0  0
    5.7308    2.6244    0.0000 O   0  0  0  0  0  0  0  0  0  0  0  0
    4.9747    3.9198    0.0000 C   0  0  0  0  0  0  0  0  0  0  0  0
   -1.0130    1.2936    0.0000 C   0  0  0  0  0  0  0  0  0  0  0  0
   -1.7569   -0.0090    0.0000 C   0  0  0  0  0  0  0  0  0  0  0  0
   -1.0008   -1.3045    0.0000 O   0  0  0  0  0  0  0  0  0  0  0  0
   -3.2569   -0.0160    0.0000 O   0  0  0  0  0  0  0  0  0  0  0  0
    0.6480   -1.0369    0.0000 H   0  0  0  0  0  0  0  0  0  0  0  0
  1  2  1  0  0  0  0
  1  6  2  0  0  0  0
  2  3  2  0  0  0  0
  3  4  1  0  0  0  0
  4  5  2  0  0  0  0
  5  6  1  0  0  0  0
  5 11  1  0  0  0  0
  6  7  1  0  0  0  0
  7  8  2  0  0  0  0
  8  9  1  0  0  0  0
  9 10  2  0  0  0  0
  9 11  1  0  0  0  0
  1 12  1  0  0  0  0
 13 14  1  0  0  0  0
 14 15  1  0  0  0  0
 14 17  1  0  0  0  0
 14 18  1  0  0  0  0
 15 16  2  0  0  0  0
  2 16  1  0  0  0  0
  3 17  1  0  0  0  0
 19 20  1  0  0  0  0
  4 19  1  0  0  0  0
 21 22  1  0  0  0  0
 22 23  2  0  0  0  0
 22 24  1  0  0  0  0
  8 21  1  0  0  0  0
  7 25  1  0  0  0  0
M  END
> <score_Kier2>
0.516499

$$$$
suggested molecule #317
 MOE2019            2D

 25 27  0  0  0  0  0  0  0  0999 V2000
    3.4992   -1.2833    0.0000 C   0  0  0  0  0  0  0  0  0  1  0  0
    4.9992   -1.2762    0.0000 C   0  0  0  0  0  0  0  0  0  2  0  0
    5.7430    0.0263    0.0000 C   0  0  0  0  0  0  0  0  0  3  0  0
    4.9869    1.3218    0.0000 C   0  0  0  0  0  0  0  0  0  4  0  0
    3.4870    1.3147    0.0000 C   0  0  0  0  0  0  0  0  0  5  0  0
    2.7431    0.0122    0.0000 C   0  0  0  0  0  0  0  0  0  6  0  0
    1.2431    0.0051    0.0000 C   0  0  0  0  0  0  0  0  0  7  0  0
    0.4870    1.3006    0.0000 C   0  0  0  0  0  0  0  0  0  8  0  0
    1.2309    2.6032    0.0000 C   0  0  0  0  0  0  0  0  0  9  0  0
    0.4748    3.8987    0.0000 O   0  0  0  0  0  0  0  0  0 10  0  0
    2.7309    2.6102    0.0000 O   0  0  0  0  0  0  0  0  0 11  0  0
    2.9041   -2.3253    0.0000 H   0  0  0  0  0  0  0  0  0  0  0  0
    9.3017   -2.0060    0.0000 C   0  0  0  0  0  0  0  0  0  0  0  0
    7.9991   -1.2621    0.0000 C   0  0  0  0  0  0  0  0  0  0  0  0
    7.2552   -2.5647    0.0000 C   0  0  0  0  0  0  0  0  0  0  0  0
    5.7553   -2.5717    0.0000 C   0  0  0  0  0  0  0  0  0  0  0  0
    7.2430    0.0334    0.0000 O   0  0  0  0  0  0  0  0  0  0  0  0
    9.2946   -0.5060    0.0000 C   0  0  0  0  0  0  0  0  0  0  0  0
    5.7308    2.6244    0.0000 O   0  0  0  0  0  0  0  0  0  0  0  0
    4.9747    3.9198    0.0000 C   0  0  0  0  0  0  0  0  0  0  0  0
   -1.0130    1.2936    0.0000 C   0  0  0  0  0  0  0  0  0  0  0  0
   -1.7569   -0.0090    0.0000 C   0  0  0  0  0  0  0  0  0  0  0  0
   -1.0008   -1.3045    0.0000 O   0  0  0  0  0  0  0  0  0  0  0  0
   -3.2569   -0.0160    0.0000 O   0  0  0  0  0  0  0  0  0  0  0  0
    0.6480   -1.0369    0.0000 H   0  0  0  0  0  0  0  0  0  0  0  0
  1  2  1  0  0  0  0
  1  6  2  0  0  0  0
  2  3  2  0  0  0  0
  3  4  1  0  0  0  0
  4  5  2  0  0  0  0
  5  6  1  0  0  0  0
  5 11  1  0  0  0  0
  6  7  1  0  0  0  0
  7  8  2  0  0  0  0
  8  9  1  0  0  0  0
  9 10  2  0  0  0  0
  9 11  1  0  0  0  0
  1 12  1  0  0  0  0
 13 14  1  0  0  0  0
 14 15  1  0  0  0  0
 14 17  1  0  0  0  0
 14 18  1  0  0  0  0
 15 16  2  0  0  0  0
  2 16  1  0  0  0  0
  3 17  1  0  0  0  0
 19 20  1  0  0  0  0
  4 19  1  0  0  0  0
 21 22  1  0  0  0  0
 22 23  2  0  0  0  0
 22 24  1  0  0  0  0
  8 21  1  0  0  0  0
  7 25  1  0  0  0  0
M  END
> <score_Kier3>
0.511488

$$$$
suggested molecule #318
 MOE2019            2D

 25 27  0  0  0  0  0  0  0  0999 V2000
    3.4992   -1.2833    0.0000 C   0  0  0  0  0  0  0  0  0  1  0  0
    4.9992   -1.2762    0.0000 C   0  0  0  0  0  0  0  0  0  2  0  0
    5.7430    0.0263    0.0000 C   0  0  0  0  0  0  0  0  0  3  0  0
    4.9869    1.3218    0.0000 C   0  0  0  0  0  0  0  0  0  4  0  0
    3.4870    1.3147    0.0000 C   0  0  0  0  0  0  0  0  0  5  0  0
    2.7431    0.0122    0.0000 C   0  0  0  0  0  0  0  0  0  6  0  0
    1.2431    0.0051    0.0000 C   0  0  0  0  0  0  0  0  0  7  0  0
    0.4870    1.3006    0.0000 C   0  0  0  0  0  0  0  0  0  8  0  0
    1.2309    2.6032    0.0000 C   0  0  0  0  0  0  0  0  0  9  0  0
    0.4748    3.8987    0.0000 O   0  0  0  0  0  0  0  0  0 10  0  0
    2.7309    2.6102    0.0000 O   0  0  0  0  0  0  0  0  0 11  0  0
    2.9041   -2.3253    0.0000 H   0  0  0  0  0  0  0  0  0  0  0  0
    9.3017   -2.0060    0.0000 C   0  0  0  0  0  0  0  0  0  0  0  0
    7.9991   -1.2621    0.0000 C   0  0  0  0  0  0  0  0  0  0  0  0
    7.2552   -2.5647    0.0000 C   0  0  0  0  0  0  0  0  0  0  0  0
    5.7553   -2.5717    0.0000 C   0  0  0  0  0  0  0  0  0  0  0  0
    7.2430    0.0334    0.0000 O   0  0  0  0  0  0  0  0  0  0  0  0
    9.2946   -0.5060    0.0000 C   0  0  0  0  0  0  0  0  0  0  0  0
    5.7308    2.6244    0.0000 O   0  0  0  0  0  0  0  0  0  0  0  0
    4.9747    3.9198    0.0000 C   0  0  0  0  0  0  0  0  0  0  0  0
   -1.0130    1.2936    0.0000 C   0  0  0  0  0  0  0  0  0  0  0  0
   -1.7569   -0.0090    0.0000 C   0  0  0  0  0  0  0  0  0  0  0  0
   -1.0008   -1.3045    0.0000 O   0  0  0  0  0  0  0  0  0  0  0  0
   -3.2569   -0.0160    0.0000 O   0  0  0  0  0  0  0  0  0  0  0  0
    0.6480   -1.0369    0.0000 H   0  0  0  0  0  0  0  0  0  0  0  0
  1  2  1  0  0  0  0
  1  6  2  0  0  0  0
  2  3  2  0  0  0  0
  3  4  1  0  0  0  0
  4  5  2  0  0  0  0
  5  6  1  0  0  0  0
  5 11  1  0  0  0  0
  6  7  1  0  0  0  0
  7  8  2  0  0  0  0
  8  9  1  0  0  0  0
  9 10  2  0  0  0  0
  9 11  1  0  0  0  0
  1 12  1  0  0  0  0
 13 14  1  0  0  0  0
 14 15  1  0  0  0  0
 14 17  1  0  0  0  0
 14 18  1  0  0  0  0
 15 16  2  0  0  0  0
  2 16  1  0  0  0  0
  3 17  1  0  0  0  0
 19 20  1  0  0  0  0
  4 19  1  0  0  0  0
 21 22  1  0  0  0  0
 22 23  2  0  0  0  0
 22 24  1  0  0  0  0
  8 21  1  0  0  0  0
  7 25  1  0  0  0  0
M  END
> <score_KierA1>
0.517683

$$$$
suggested molecule #319
 MOE2019            2D

 25 27  0  0  0  0  0  0  0  0999 V2000
    3.4992   -1.2833    0.0000 C   0  0  0  0  0  0  0  0  0  1  0  0
    4.9992   -1.2762    0.0000 C   0  0  0  0  0  0  0  0  0  2  0  0
    5.7430    0.0263    0.0000 C   0  0  0  0  0  0  0  0  0  3  0  0
    4.9869    1.3218    0.0000 C   0  0  0  0  0  0  0  0  0  4  0  0
    3.4870    1.3147    0.0000 C   0  0  0  0  0  0  0  0  0  5  0  0
    2.7431    0.0122    0.0000 C   0  0  0  0  0  0  0  0  0  6  0  0
    1.2431    0.0051    0.0000 C   0  0  0  0  0  0  0  0  0  7  0  0
    0.4870    1.3006    0.0000 C   0  0  0  0  0  0  0  0  0  8  0  0
    1.2309    2.6032    0.0000 C   0  0  0  0  0  0  0  0  0  9  0  0
    0.4748    3.8987    0.0000 O   0  0  0  0  0  0  0  0  0 10  0  0
    2.7309    2.6102    0.0000 O   0  0  0  0  0  0  0  0  0 11  0  0
    2.9041   -2.3253    0.0000 H   0  0  0  0  0  0  0  0  0  0  0  0
    9.3017   -2.0060    0.0000 C   0  0  0  0  0  0  0  0  0  0  0  0
    7.9991   -1.2621    0.0000 C   0  0  0  0  0  0  0  0  0  0  0  0
    7.2552   -2.5647    0.0000 C   0  0  0  0  0  0  0  0  0  0  0  0
    5.7553   -2.5717    0.0000 C   0  0  0  0  0  0  0  0  0  0  0  0
    7.2430    0.0334    0.0000 O   0  0  0  0  0  0  0  0  0  0  0  0
    9.2946   -0.5060    0.0000 C   0  0  0  0  0  0  0  0  0  0  0  0
    5.7308    2.6244    0.0000 O   0  0  0  0  0  0  0  0  0  0  0  0
    4.9747    3.9198    0.0000 C   0  0  0  0  0  0  0  0  0  0  0  0
   -1.0130    1.2936    0.0000 C   0  0  0  0  0  0  0  0  0  0  0  0
   -1.7569   -0.0090    0.0000 C   0  0  0  0  0  0  0  0  0  0  0  0
   -1.0008   -1.3045    0.0000 O   0  0  0  0  0  0  0  0  0  0  0  0
   -3.2569   -0.0160    0.0000 O   0  0  0  0  0  0  0  0  0  0  0  0
    0.6480   -1.0369    0.0000 H   0  0  0  0  0  0  0  0  0  0  0  0
  1  2  1  0  0  0  0
  1  6  2  0  0  0  0
  2  3  2  0  0  0  0
  3  4  1  0  0  0  0
  4  5  2  0  0  0  0
  5  6  1  0  0  0  0
  5 11  1  0  0  0  0
  6  7  1  0  0  0  0
  7  8  2  0  0  0  0
  8  9  1  0  0  0  0
  9 10  2  0  0  0  0
  9 11  1  0  0  0  0
  1 12  1  0  0  0  0
 13 14  1  0  0  0  0
 14 15  1  0  0  0  0
 14 17  1  0  0  0  0
 14 18  1  0  0  0  0
 15 16  2  0  0  0  0
  2 16  1  0  0  0  0
  3 17  1  0  0  0  0
 19 20  1  0  0  0  0
  4 19  1  0  0  0  0
 21 22  1  0  0  0  0
 22 23  2  0  0  0  0
 22 24  1  0  0  0  0
  8 21  1  0  0  0  0
  7 25  1  0  0  0  0
M  END
> <score_KierA2>
0.516774

$$$$
suggested molecule #320
 MOE2019            2D

 25 27  0  0  0  0  0  0  0  0999 V2000
    3.4992   -1.2833    0.0000 C   0  0  0  0  0  0  0  0  0  1  0  0
    4.9992   -1.2762    0.0000 C   0  0  0  0  0  0  0  0  0  2  0  0
    5.7430    0.0263    0.0000 C   0  0  0  0  0  0  0  0  0  3  0  0
    4.9869    1.3218    0.0000 C   0  0  0  0  0  0  0  0  0  4  0  0
    3.4870    1.3147    0.0000 C   0  0  0  0  0  0  0  0  0  5  0  0
    2.7431    0.0122    0.0000 C   0  0  0  0  0  0  0  0  0  6  0  0
    1.2431    0.0051    0.0000 C   0  0  0  0  0  0  0  0  0  7  0  0
    0.4870    1.3006    0.0000 C   0  0  0  0  0  0  0  0  0  8  0  0
    1.2309    2.6032    0.0000 C   0  0  0  0  0  0  0  0  0  9  0  0
    0.4748    3.8987    0.0000 O   0  0  0  0  0  0  0  0  0 10  0  0
    2.7309    2.6102    0.0000 O   0  0  0  0  0  0  0  0  0 11  0  0
    2.9041   -2.3253    0.0000 H   0  0  0  0  0  0  0  0  0  0  0  0
    9.3017   -2.0060    0.0000 C   0  0  0  0  0  0  0  0  0  0  0  0
    7.9991   -1.2621    0.0000 C   0  0  0  0  0  0  0  0  0  0  0  0
    7.2552   -2.5647    0.0000 C   0  0  0  0  0  0  0  0  0  0  0  0
    5.7553   -2.5717    0.0000 C   0  0  0  0  0  0  0  0  0  0  0  0
    7.2430    0.0334    0.0000 O   0  0  0  0  0  0  0  0  0  0  0  0
    9.2946   -0.5060    0.0000 C   0  0  0  0  0  0  0  0  0  0  0  0
    5.7308    2.6244    0.0000 O   0  0  0  0  0  0  0  0  0  0  0  0
    4.9747    3.9198    0.0000 C   0  0  0  0  0  0  0  0  0  0  0  0
   -1.0130    1.2936    0.0000 C   0  0  0  0  0  0  0  0  0  0  0  0
   -1.7569   -0.0090    0.0000 C   0  0  0  0  0  0  0  0  0  0  0  0
   -1.0008   -1.3045    0.0000 O   0  0  0  0  0  0  0  0  0  0  0  0
   -3.2569   -0.0160    0.0000 O   0  0  0  0  0  0  0  0  0  0  0  0
    0.6480   -1.0369    0.0000 H   0  0  0  0  0  0  0  0  0  0  0  0
  1  2  1  0  0  0  0
  1  6  2  0  0  0  0
  2  3  2  0  0  0  0
  3  4  1  0  0  0  0
  4  5  2  0  0  0  0
  5  6  1  0  0  0  0
  5 11  1  0  0  0  0
  6  7  1  0  0  0  0
  7  8  2  0  0  0  0
  8  9  1  0  0  0  0
  9 10  2  0  0  0  0
  9 11  1  0  0  0  0
  1 12  1  0  0  0  0
 13 14  1  0  0  0  0
 14 15  1  0  0  0  0
 14 17  1  0  0  0  0
 14 18  1  0  0  0  0
 15 16  2  0  0  0  0
  2 16  1  0  0  0  0
  3 17  1  0  0  0  0
 19 20  1  0  0  0  0
  4 19  1  0  0  0  0
 21 22  1  0  0  0  0
 22 23  2  0  0  0  0
 22 24  1  0  0  0  0
  8 21  1  0  0  0  0
  7 25  1  0  0  0  0
M  END
> <score_KierFlex>
0.516342

$$$$
suggested molecule #321
 MOE2019            2D

 32 36  0  0  0  0  0  0  0  0999 V2000
    3.4992   -1.2833    0.0000 C   0  0  0  0  0  0  0  0  0  1  0  0
    4.9992   -1.2762    0.0000 C   0  0  0  0  0  0  0  0  0  2  0  0
    5.7430    0.0263    0.0000 C   0  0  0  0  0  0  0  0  0  3  0  0
    4.9869    1.3218    0.0000 C   0  0  0  0  0  0  0  0  0  4  0  0
    3.4870    1.3147    0.0000 C   0  0  0  0  0  0  0  0  0  5  0  0
    2.7431    0.0122    0.0000 C   0  0  0  0  0  0  0  0  0  6  0  0
    1.2431    0.0051    0.0000 C   0  0  0  0  0  0  0  0  0  7  0  0
    0.4870    1.3006    0.0000 C   0  0  0  0  0  0  0  0  0  8  0  0
    1.2309    2.6032    0.0000 C   0  0  0  0  0  0  0  0  0  9  0  0
    0.4748    3.8987    0.0000 O   0  0  0  0  0  0  0  0  0 10  0  0
    2.7309    2.6102    0.0000 O   0  0  0  0  0  0  0  0  0 11  0  0
    2.9041   -2.3253    0.0000 H   0  0  0  0  0  0  0  0  0  0  0  0
    9.3017   -2.0060    0.0000 C   0  0  0  0  0  0  0  0  0  0  0  0
    7.9991   -1.2621    0.0000 C   0  0  0  0  0  0  0  0  0  0  0  0
    7.2552   -2.5647    0.0000 C   0  0  0  0  0  0  0  0  0  0  0  0
    5.7553   -2.5717    0.0000 C   0  0  0  0  0  0  0  0  0  0  0  0
    7.2430    0.0334    0.0000 O   0  0  0  0  0  0  0  0  0  0  0  0
    9.2946   -0.5060    0.0000 C   0  0  0  0  0  0  0  0  0  0  0  0
    5.7308    2.6244    0.0000 O   0  0  0  0  0  0  0  0  0  0  0  0
    7.2308    2.6314    0.0000 C   0  0  0  0  0  0  0  0  0  0  0  0
   -1.7447   -2.6070    0.0000 C   0  0  0  0  0  0  0  0  0  0  0  0
   -1.0008   -1.3045    0.0000 O   0  0  0  0  0  0  0  0  0  0  0  0
   -1.7569   -0.0090    0.0000 C   0  0  0  0  0  0  0  0  0  0  0  0
   -3.2569   -0.0160    0.0000 C   0  0  0  0  0  0  0  0  0  0  0  0
   -4.0130    1.2795    0.0000 C   0  0  0  0  0  0  0  0  0  0  0  0
   -3.2691    2.5820    0.0000 C   0  0  0  0  0  0  0  0  0  0  0  0
   -1.7691    2.5891    0.0000 C   0  0  0  0  0  0  0  0  0  0  0  0
   -1.0130    1.2936    0.0000 C   0  0  0  0  0  0  0  0  0  0  0  0
   -4.2780    3.6920    0.0000 O   0  0  0  0  0  0  0  0  0  0  0  0
   -5.6454    3.0755    0.0000 C   0  0  0  0  0  0  0  0  0  0  0  0
   -5.4816    1.5844    0.0000 O   0  0  0  0  0  0  0  0  0  0  0  0
    0.6480   -1.0369    0.0000 H   0  0  0  0  0  0  0  0  0  0  0  0
  1  2  1  0  0  0  0
  1  6  2  0  0  0  0
  2  3  2  0  0  0  0
  3  4  1  0  0  0  0
  4  5  2  0  0  0  0
  5  6  1  0  0  0  0
  5 11  1  0  0  0  0
  6  7  1  0  0  0  0
  7  8  2  0  0  0  0
  8  9  1  0  0  0  0
  9 10  2  0  0  0  0
  9 11  1  0  0  0  0
  1 12  1  0  0  0  0
 13 14  1  0  0  0  0
 14 15  1  0  0  0  0
 14 17  1  0  0  0  0
 14 18  1  0  0  0  0
 15 16  2  0  0  0  0
  2 16  1  0  0  0  0
  3 17  1  0  0  0  0
 19 20  1  0  0  0  0
  4 19  1  0  0  0  0
 21 22  1  0  0  0  0
 22 23  1  0  0  0  0
 23 24  2  0  0  0  0
 23 28  1  0  0  0  0
 24 25  1  0  0  0  0
 25 26  2  0  0  0  0
 25 31  1  0  0  0  0
 26 27  1  0  0  0  0
 26 29  1  0  0  0  0
 27 28  2  0  0  0  0
 29 30  1  0  0  0  0
 30 31  1  0  0  0  0
  8 28  1  0  0  0  0
  7 32  1  0  0  0  0
M  END
> <score_Kier3>
0.511438

$$$$
suggested molecule #322
 MOE2019            2D

 32 36  0  0  0  0  0  0  0  0999 V2000
    3.4992   -1.2833    0.0000 C   0  0  0  0  0  0  0  0  0  1  0  0
    4.9992   -1.2762    0.0000 C   0  0  0  0  0  0  0  0  0  2  0  0
    5.7430    0.0263    0.0000 C   0  0  0  0  0  0  0  0  0  3  0  0
    4.9869    1.3218    0.0000 C   0  0  0  0  0  0  0  0  0  4  0  0
    3.4870    1.3147    0.0000 C   0  0  0  0  0  0  0  0  0  5  0  0
    2.7431    0.0122    0.0000 C   0  0  0  0  0  0  0  0  0  6  0  0
    1.2431    0.0051    0.0000 C   0  0  0  0  0  0  0  0  0  7  0  0
    0.4870    1.3006    0.0000 C   0  0  0  0  0  0  0  0  0  8  0  0
    1.2309    2.6032    0.0000 C   0  0  0  0  0  0  0  0  0  9  0  0
    0.4748    3.8987    0.0000 O   0  0  0  0  0  0  0  0  0 10  0  0
    2.7309    2.6102    0.0000 O   0  0  0  0  0  0  0  0  0 11  0  0
    2.9041   -2.3253    0.0000 H   0  0  0  0  0  0  0  0  0  0  0  0
    9.3017   -2.0060    0.0000 C   0  0  0  0  0  0  0  0  0  0  0  0
    7.9991   -1.2621    0.0000 C   0  0  0  0  0  0  0  0  0  0  0  0
    7.2552   -2.5647    0.0000 C   0  0  0  0  0  0  0  0  0  0  0  0
    5.7553   -2.5717    0.0000 C   0  0  0  0  0  0  0  0  0  0  0  0
    7.2430    0.0334    0.0000 O   0  0  0  0  0  0  0  0  0  0  0  0
    9.2946   -0.5060    0.0000 C   0  0  0  0  0  0  0  0  0  0  0  0
    5.7308    2.6244    0.0000 O   0  0  0  0  0  0  0  0  0  0  0  0
    7.2308    2.6314    0.0000 C   0  0  0  0  0  0  0  0  0  0  0  0
   -1.7447   -2.6070    0.0000 C   0  0  0  0  0  0  0  0  0  0  0  0
   -1.0008   -1.3045    0.0000 O   0  0  0  0  0  0  0  0  0  0  0  0
   -1.7569   -0.0090    0.0000 C   0  0  0  0  0  0  0  0  0  0  0  0
   -3.2569   -0.0160    0.0000 C   0  0  0  0  0  0  0  0  0  0  0  0
   -4.0130    1.2795    0.0000 C   0  0  0  0  0  0  0  0  0  0  0  0
   -3.2691    2.5820    0.0000 C   0  0  0  0  0  0  0  0  0  0  0  0
   -1.7691    2.5891    0.0000 C   0  0  0  0  0  0  0  0  0  0  0  0
   -1.0130    1.2936    0.0000 C   0  0  0  0  0  0  0  0  0  0  0  0
   -4.2780    3.6920    0.0000 O   0  0  0  0  0  0  0  0  0  0  0  0
   -5.6454    3.0755    0.0000 C   0  0  0  0  0  0  0  0  0  0  0  0
   -5.4816    1.5844    0.0000 O   0  0  0  0  0  0  0  0  0  0  0  0
    0.6480   -1.0369    0.0000 H   0  0  0  0  0  0  0  0  0  0  0  0
  1  2  1  0  0  0  0
  1  6  2  0  0  0  0
  2  3  2  0  0  0  0
  3  4  1  0  0  0  0
  4  5  2  0  0  0  0
  5  6  1  0  0  0  0
  5 11  1  0  0  0  0
  6  7  1  0  0  0  0
  7  8  2  0  0  0  0
  8  9  1  0  0  0  0
  9 10  2  0  0  0  0
  9 11  1  0  0  0  0
  1 12  1  0  0  0  0
 13 14  1  0  0  0  0
 14 15  1  0  0  0  0
 14 17  1  0  0  0  0
 14 18  1  0  0  0  0
 15 16  2  0  0  0  0
  2 16  1  0  0  0  0
  3 17  1  0  0  0  0
 19 20  1  0  0  0  0
  4 19  1  0  0  0  0
 21 22  1  0  0  0  0
 22 23  1  0  0  0  0
 23 24  2  0  0  0  0
 23 28  1  0  0  0  0
 24 25  1  0  0  0  0
 25 26  2  0  0  0  0
 25 31  1  0  0  0  0
 26 27  1  0  0  0  0
 26 29  1  0  0  0  0
 27 28  2  0  0  0  0
 29 30  1  0  0  0  0
 30 31  1  0  0  0  0
  8 28  1  0  0  0  0
  7 32  1  0  0  0  0
M  END
> <score_KierA1>
0.517589

$$$$
suggested molecule #323
 MOE2019            2D

 33 36  0  0  0  0  0  0  0  0999 V2000
    3.4992   -1.2833    0.0000 C   0  0  0  0  0  0  0  0  0  1  0  0
    4.9992   -1.2762    0.0000 C   0  0  0  0  0  0  0  0  0  2  0  0
    5.7430    0.0263    0.0000 C   0  0  0  0  0  0  0  0  0  3  0  0
    4.9869    1.3218    0.0000 C   0  0  0  0  0  0  0  0  0  4  0  0
    3.4870    1.3147    0.0000 C   0  0  0  0  0  0  0  0  0  5  0  0
    2.7431    0.0122    0.0000 C   0  0  0  0  0  0  0  0  0  6  0  0
    1.2431    0.0051    0.0000 C   0  0  0  0  0  0  0  0  0  7  0  0
    0.4870    1.3006    0.0000 C   0  0  0  0  0  0  0  0  0  8  0  0
    1.2309    2.6032    0.0000 C   0  0  0  0  0  0  0  0  0  9  0  0
    0.4748    3.8987    0.0000 O   0  0  0  0  0  0  0  0  0 10  0  0
    2.7309    2.6102    0.0000 O   0  0  0  0  0  0  0  0  0 11  0  0
    2.9041   -2.3253    0.0000 H   0  0  0  0  0  0  0  0  0  0  0  0
    9.3017   -2.0060    0.0000 C   0  0  0  0  0  0  0  0  0  0  0  0
    7.9991   -1.2621    0.0000 C   0  0  0  0  0  0  0  0  0  0  0  0
    7.2552   -2.5647    0.0000 C   0  0  0  0  0  0  0  0  0  0  0  0
    5.7553   -2.5717    0.0000 C   0  0  0  0  0  0  0  0  0  0  0  0
    7.2430    0.0334    0.0000 O   0  0  0  0  0  0  0  0  0  0  0  0
    9.2946   -0.5060    0.0000 C   0  0  0  0  0  0  0  0  0  0  0  0
    5.7308    2.6244    0.0000 O   0  0  0  0  0  0  0  0  0  0  0  0
    4.9747    3.9198    0.0000 C   0  0  0  0  0  0  0  0  0  0  0  0
   -1.0130    1.2936    0.0000 O   0  0  0  0  0  0  0  0  0  0  0  0
   -1.7569   -0.0090    0.0000 C   0  0  0  0  0  0  0  0  0  0  0  0
   -3.2569   -0.0160    0.0000 C   0  0  0  0  0  0  0  0  0  0  0  0
   -4.0007   -1.3186    0.0000 C   0  0  0  0  0  0  0  0  0  0  0  0
   -3.2446   -2.6141    0.0000 C   0  0  0  0  0  0  0  0  0  0  0  0
   -1.7447   -2.6070    0.0000 C   0  0  0  0  0  0  0  0  0  0  0  0
   -1.0008   -1.3045    0.0000 O   0  0  0  0  0  0  0  0  0  0  0  0
   -0.9886   -3.9025    0.0000 C   0  0  0  0  0  0  0  0  0  0  0  0
   -1.7324   -5.2051    0.0000 O   0  0  0  0  0  0  0  0  0  0  0  0
   -3.9885   -3.9166    0.0000 O   0  0  0  0  0  0  0  0  0  0  0  0
   -5.5007   -1.3256    0.0000 O   0  0  0  0  0  0  0  0  0  0  0  0
   -4.0130    1.2795    0.0000 O   0  0  0  0  0  0  0  0  0  0  0  0
    0.6480   -1.0369    0.0000 H   0  0  0  0  0  0  0  0  0  0  0  0
  1  2  1  0  0  0  0
  1  6  2  0  0  0  0
  2  3  2  0  0  0  0
  3  4  1  0  0  0  0
  4  5  2  0  0  0  0
  5  6  1  0  0  0  0
  5 11  1  0  0  0  0
  6  7  1  0  0  0  0
  7  8  2  0  0  0  0
  8  9  1  0  0  0  0
  9 10  2  0  0  0  0
  9 11  1  0  0  0  0
  1 12  1  0  0  0  0
 13 14  1  0  0  0  0
 14 15  1  0  0  0  0
 14 17  1  0  0  0  0
 14 18  1  0  0  0  0
 15 16  2  0  0  0  0
  2 16  1  0  0  0  0
  3 17  1  0  0  0  0
 19 20  1  0  0  0  0
  4 19  1  0  0  0  0
 21 22  1  0  0  0  0
 22 23  1  0  0  0  0
 22 27  1  0  0  0  0
 23 24  1  0  0  0  0
 23 32  1  0  0  0  0
 24 25  1  0  0  0  0
 24 31  1  0  0  0  0
 25 26  1  0  0  0  0
 25 30  1  0  0  0  0
 26 27  1  0  0  0  0
 26 28  1  0  0  0  0
 28 29  1  0  0  0  0
  8 21  1  0  0  0  0
  7 33  1  0  0  0  0
M  END
> <score_KierA1>
0.517583

$$$$
suggested molecule #324
 MOE2019            2D

 39 43  0  0  1  0  0  0  0  0999 V2000
    3.4992   -1.2833    0.0000 C   0  0  0  0  0  0  0  0  0  1  0  0
    4.9992   -1.2762    0.0000 C   0  0  0  0  0  0  0  0  0  2  0  0
    5.7430    0.0263    0.0000 C   0  0  0  0  0  0  0  0  0  3  0  0
    4.9869    1.3218    0.0000 C   0  0  0  0  0  0  0  0  0  4  0  0
    3.4870    1.3147    0.0000 C   0  0  0  0  0  0  0  0  0  5  0  0
    2.7431    0.0122    0.0000 C   0  0  0  0  0  0  0  0  0  6  0  0
    1.2431    0.0051    0.0000 C   0  0  0  0  0  0  0  0  0  7  0  0
    0.4870    1.3006    0.0000 C   0  0  0  0  0  0  0  0  0  8  0  0
    1.2309    2.6032    0.0000 C   0  0  0  0  0  0  0  0  0  9  0  0
    0.4748    3.8987    0.0000 O   0  0  0  0  0  0  0  0  0 10  0  0
    2.7309    2.6102    0.0000 O   0  0  0  0  0  0  0  0  0 11  0  0
    2.9041   -2.3253    0.0000 H   0  0  0  0  0  0  0  0  0  0  0  0
    9.3017   -2.0060    0.0000 C   0  0  0  0  0  0  0  0  0  0  0  0
    7.9991   -1.2621    0.0000 C   0  0  0  0  0  0  0  0  0  0  0  0
    7.2552   -2.5647    0.0000 C   0  0  0  0  0  0  0  0  0  0  0  0
    5.7553   -2.5717    0.0000 C   0  0  0  0  0  0  0  0  0  0  0  0
    7.2430    0.0334    0.0000 O   0  0  0  0  0  0  0  0  0  0  0  0
    9.2946   -0.5060    0.0000 C   0  0  0  0  0  0  0  0  0  0  0  0
    5.7308    2.6244    0.0000 O   0  0  0  0  0  0  0  0  0  0  0  0
    7.2308    2.6314    0.0000 C   0  0  0  0  0  0  0  0  0  0  0  0
   -1.0130    1.2936    0.0000 C   0  0  0  0  0  0  0  0  0  0  0  0
   -1.7569   -0.0090    0.0000 C   0  0  0  0  0  0  0  0  0  0  0  0
   -3.2569   -0.0160    0.0000 C   0  0  0  0  0  0  0  0  0  0  0  0
   -4.0130    1.2795    0.0000 C   0  0  0  0  0  0  0  0  0  0  0  0
   -3.2691    2.5820    0.0000 C   0  0  0  0  0  0  0  0  0  0  0  0
   -1.7691    2.5891    0.0000 C   0  0  0  0  0  0  0  0  0  0  0  0
   -5.5129    1.2724    0.0000 O   0  0  0  0  0  0  0  0  0  0  0  0
   -6.2690    2.5679    0.0000 C   0  0  1  0  0  0  0  0  0  0  0  0
   -7.7690    2.5609    0.0000 C   0  0  1  0  0  0  0  0  0  0  0  0
   -8.5251    3.8564    0.0000 C   0  0  2  0  0  0  0  0  0  0  0  0
   -7.7812    5.1589    0.0000 C   0  0  1  0  0  0  0  0  0  0  0  0
   -6.2813    5.1660    0.0000 C   0  0  2  0  0  0  0  0  0  0  0  0
   -5.5252    3.8705    0.0000 O   0  0  0  0  0  0  0  0  0  0  0  0
   -5.5374    6.4685    0.0000 C   0  0  0  0  0  0  0  0  0  0  0  0
   -6.2935    7.7640    0.0000 O   0  0  0  0  0  0  0  0  0  0  0  0
   -8.5374    6.4544    0.0000 O   0  0  0  0  0  0  0  0  0  0  0  0
  -10.0251    3.8493    0.0000 O   0  0  0  0  0  0  0  0  0  0  0  0
   -8.5129    1.2583    0.0000 O   0  0  0  0  0  0  0  0  0  0  0  0
    0.6480   -1.0369    0.0000 H   0  0  0  0  0  0  0  0  0  0  0  0
  1  2  2  0  0  0  0
  1  6  1  0  0  0  0
  2  3  1  0  0  0  0
  3  4  2  0  0  0  0
  4  5  1  0  0  0  0
  5  6  2  0  0  0  0
  5 11  1  0  0  0  0
  6  7  1  0  0  0  0
  7  8  2  0  0  0  0
  8  9  1  0  0  0  0
  9 10  2  0  0  0  0
  9 11  1  0  0  0  0
  1 12  1  0  0  0  0
 13 14  1  0  0  0  0
 14 15  1  0  0  0  0
 14 17  1  0  0  0  0
 14 18  1  0  0  0  0
 15 16  2  0  0  0  0
  2 16  1  0  0  0  0
  3 17  1  0  0  0  0
 19 20  1  0  0  0  0
  4 19  1  0  0  0  0
 21 22  1  0  0  0  0
 21 26  2  0  0  0  0
 22 23  2  0  0  0  0
 23 24  1  0  0  0  0
 24 25  2  0  0  0  0
 24 27  1  0  0  0  0
 25 26  1  0  0  0  0
 28 27  1  6  0  0  0
 28 29  1  0  0  0  0
 28 33  1  0  0  0  0
 29 30  1  0  0  0  0
 29 38  1  1  0  0  0
 30 31  1  0  0  0  0
 30 37  1  6  0  0  0
 31 32  1  0  0  0  0
 31 36  1  1  0  0  0
 32 33  1  0  0  0  0
 32 34  1  6  0  0  0
 34 35  1  0  0  0  0
  8 21  1  0  0  0  0
  7 39  1  0  0  0  0
M  END
> <score_Kier3>
0.51144

$$$$
suggested molecule #325
 MOE2019            2D

 39 43  0  0  1  0  0  0  0  0999 V2000
    3.4992   -1.2833    0.0000 C   0  0  0  0  0  0  0  0  0  1  0  0
    4.9992   -1.2762    0.0000 C   0  0  0  0  0  0  0  0  0  2  0  0
    5.7430    0.0263    0.0000 C   0  0  0  0  0  0  0  0  0  3  0  0
    4.9869    1.3218    0.0000 C   0  0  0  0  0  0  0  0  0  4  0  0
    3.4870    1.3147    0.0000 C   0  0  0  0  0  0  0  0  0  5  0  0
    2.7431    0.0122    0.0000 C   0  0  0  0  0  0  0  0  0  6  0  0
    1.2431    0.0051    0.0000 C   0  0  0  0  0  0  0  0  0  7  0  0
    0.4870    1.3006    0.0000 C   0  0  0  0  0  0  0  0  0  8  0  0
    1.2309    2.6032    0.0000 C   0  0  0  0  0  0  0  0  0  9  0  0
    0.4748    3.8987    0.0000 O   0  0  0  0  0  0  0  0  0 10  0  0
    2.7309    2.6102    0.0000 O   0  0  0  0  0  0  0  0  0 11  0  0
    2.9041   -2.3253    0.0000 H   0  0  0  0  0  0  0  0  0  0  0  0
    9.3017   -2.0060    0.0000 C   0  0  0  0  0  0  0  0  0  0  0  0
    7.9991   -1.2621    0.0000 C   0  0  0  0  0  0  0  0  0  0  0  0
    7.2552   -2.5647    0.0000 C   0  0  0  0  0  0  0  0  0  0  0  0
    5.7553   -2.5717    0.0000 C   0  0  0  0  0  0  0  0  0  0  0  0
    7.2430    0.0334    0.0000 O   0  0  0  0  0  0  0  0  0  0  0  0
    9.2946   -0.5060    0.0000 C   0  0  0  0  0  0  0  0  0  0  0  0
    5.7308    2.6244    0.0000 O   0  0  0  0  0  0  0  0  0  0  0  0
    7.2308    2.6314    0.0000 C   0  0  0  0  0  0  0  0  0  0  0  0
   -1.0130    1.2936    0.0000 C   0  0  0  0  0  0  0  0  0  0  0  0
   -1.7569   -0.0090    0.0000 C   0  0  0  0  0  0  0  0  0  0  0  0
   -3.2569   -0.0160    0.0000 C   0  0  0  0  0  0  0  0  0  0  0  0
   -4.0130    1.2795    0.0000 C   0  0  0  0  0  0  0  0  0  0  0  0
   -3.2691    2.5820    0.0000 C   0  0  0  0  0  0  0  0  0  0  0  0
   -1.7691    2.5891    0.0000 C   0  0  0  0  0  0  0  0  0  0  0  0
   -5.5129    1.2724    0.0000 O   0  0  0  0  0  0  0  0  0  0  0  0
   -6.2690    2.5679    0.0000 C   0  0  1  0  0  0  0  0  0  0  0  0
   -7.7690    2.5609    0.0000 C   0  0  1  0  0  0  0  0  0  0  0  0
   -8.5251    3.8564    0.0000 C   0  0  2  0  0  0  0  0  0  0  0  0
   -7.7812    5.1589    0.0000 C   0  0  1  0  0  0  0  0  0  0  0  0
   -6.2813    5.1660    0.0000 C   0  0  2  0  0  0  0  0  0  0  0  0
   -5.5252    3.8705    0.0000 O   0  0  0  0  0  0  0  0  0  0  0  0
   -5.5374    6.4685    0.0000 C   0  0  0  0  0  0  0  0  0  0  0  0
   -6.2935    7.7640    0.0000 O   0  0  0  0  0  0  0  0  0  0  0  0
   -8.5374    6.4544    0.0000 O   0  0  0  0  0  0  0  0  0  0  0  0
  -10.0251    3.8493    0.0000 O   0  0  0  0  0  0  0  0  0  0  0  0
   -8.5129    1.2583    0.0000 O   0  0  0  0  0  0  0  0  0  0  0  0
    0.6480   -1.0369    0.0000 H   0  0  0  0  0  0  0  0  0  0  0  0
  1  2  2  0  0  0  0
  1  6  1  0  0  0  0
  2  3  1  0  0  0  0
  3  4  2  0  0  0  0
  4  5  1  0  0  0  0
  5  6  2  0  0  0  0
  5 11  1  0  0  0  0
  6  7  1  0  0  0  0
  7  8  2  0  0  0  0
  8  9  1  0  0  0  0
  9 10  2  0  0  0  0
  9 11  1  0  0  0  0
  1 12  1  0  0  0  0
 13 14  1  0  0  0  0
 14 15  1  0  0  0  0
 14 17  1  0  0  0  0
 14 18  1  0  0  0  0
 15 16  2  0  0  0  0
  2 16  1  0  0  0  0
  3 17  1  0  0  0  0
 19 20  1  0  0  0  0
  4 19  1  0  0  0  0
 21 22  1  0  0  0  0
 21 26  2  0  0  0  0
 22 23  2  0  0  0  0
 23 24  1  0  0  0  0
 24 25  2  0  0  0  0
 24 27  1  0  0  0  0
 25 26  1  0  0  0  0
 28 27  1  6  0  0  0
 28 29  1  0  0  0  0
 28 33  1  0  0  0  0
 29 30  1  0  0  0  0
 29 38  1  1  0  0  0
 30 31  1  0  0  0  0
 30 37  1  6  0  0  0
 31 32  1  0  0  0  0
 31 36  1  1  0  0  0
 32 33  1  0  0  0  0
 32 34  1  6  0  0  0
 34 35  1  0  0  0  0
  8 21  1  0  0  0  0
  7 39  1  0  0  0  0
M  END
> <score_KierA1>
0.517589

$$$$
suggested molecule #326
 MOE2019            2D

 31 34  0  0  0  0  0  0  0  0999 V2000
    3.4992   -1.2833    0.0000 C   0  0  0  0  0  0  0  0  0  1  0  0
    4.9992   -1.2762    0.0000 C   0  0  0  0  0  0  0  0  0  2  0  0
    5.7430    0.0263    0.0000 C   0  0  0  0  0  0  0  0  0  3  0  0
    4.9869    1.3218    0.0000 C   0  0  0  0  0  0  0  0  0  4  0  0
    3.4870    1.3147    0.0000 C   0  0  0  0  0  0  0  0  0  5  0  0
    2.7431    0.0122    0.0000 C   0  0  0  0  0  0  0  0  0  6  0  0
    1.2431    0.0051    0.0000 C   0  0  0  0  0  0  0  0  0  7  0  0
    0.4870    1.3006    0.0000 C   0  0  0  0  0  0  0  0  0  8  0  0
    1.2309    2.6032    0.0000 C   0  0  0  0  0  0  0  0  0  9  0  0
    0.4748    3.8987    0.0000 O   0  0  0  0  0  0  0  0  0 10  0  0
    2.7309    2.6102    0.0000 O   0  0  0  0  0  0  0  0  0 11  0  0
    2.9041   -2.3253    0.0000 H   0  0  0  0  0  0  0  0  0  0  0  0
    9.3017   -2.0060    0.0000 C   0  0  0  0  0  0  0  0  0  0  0  0
    7.9991   -1.2621    0.0000 C   0  0  0  0  0  0  0  0  0  0  0  0
    7.2552   -2.5647    0.0000 C   0  0  0  0  0  0  0  0  0  0  0  0
    5.7553   -2.5717    0.0000 C   0  0  0  0  0  0  0  0  0  0  0  0
    7.2430    0.0334    0.0000 O   0  0  0  0  0  0  0  0  0  0  0  0
    9.2946   -0.5060    0.0000 C   0  0  0  0  0  0  0  0  0  0  0  0
    5.7308    2.6244    0.0000 O   0  0  0  0  0  0  0  0  0  0  0  0
    7.2308    2.6314    0.0000 C   0  0  0  0  0  0  0  0  0  0  0  0
   -6.2690    2.5679    0.0000 C   0  0  0  0  0  0  0  0  0  0  0  0
   -5.5129    1.2724    0.0000 O   0  0  0  0  0  0  0  0  0  0  0  0
   -4.0130    1.2795    0.0000 C   0  0  0  0  0  0  0  0  0  0  0  0
   -3.2569   -0.0160    0.0000 C   0  0  0  0  0  0  0  0  0  0  0  0
   -1.7569   -0.0090    0.0000 C   0  0  0  0  0  0  0  0  0  0  0  0
   -1.0130    1.2936    0.0000 C   0  0  0  0  0  0  0  0  0  0  0  0
   -1.7691    2.5891    0.0000 C   0  0  0  0  0  0  0  0  0  0  0  0
   -3.2691    2.5820    0.0000 C   0  0  0  0  0  0  0  0  0  0  0  0
   -1.0008   -1.3045    0.0000 O   0  0  0  0  0  0  0  0  0  0  0  0
   -4.0007   -1.3186    0.0000 O   0  0  0  0  0  0  0  0  0  0  0  0
    0.6480   -1.0369    0.0000 H   0  0  0  0  0  0  0  0  0  0  0  0
  1  2  1  0  0  0  0
  1  6  2  0  0  0  0
  2  3  2  0  0  0  0
  3  4  1  0  0  0  0
  4  5  2  0  0  0  0
  5  6  1  0  0  0  0
  5 11  1  0  0  0  0
  6  7  1  0  0  0  0
  7  8  2  0  0  0  0
  8  9  1  0  0  0  0
  9 10  2  0  0  0  0
  9 11  1  0  0  0  0
  1 12  1  0  0  0  0
 13 14  1  0  0  0  0
 14 15  1  0  0  0  0
 14 17  1  0  0  0  0
 14 18  1  0  0  0  0
 15 16  2  0  0  0  0
  2 16  1  0  0  0  0
  3 17  1  0  0  0  0
 19 20  1  0  0  0  0
  4 19  1  0  0  0  0
 21 22  1  0  0  0  0
 22 23  1  0  0  0  0
 23 24  1  0  0  0  0
 23 28  2  0  0  0  0
 24 25  2  0  0  0  0
 24 30  1  0  0  0  0
 25 26  1  0  0  0  0
 25 29  1  0  0  0  0
 26 27  2  0  0  0  0
 27 28  1  0  0  0  0
  8 26  1  0  0  0  0
  7 31  1  0  0  0  0
M  END
> <score_Kier1>
0.517734

$$$$
suggested molecule #327
 MOE2019            2D

 31 34  0  0  0  0  0  0  0  0999 V2000
    3.4992   -1.2833    0.0000 C   0  0  0  0  0  0  0  0  0  1  0  0
    4.9992   -1.2762    0.0000 C   0  0  0  0  0  0  0  0  0  2  0  0
    5.7430    0.0263    0.0000 C   0  0  0  0  0  0  0  0  0  3  0  0
    4.9869    1.3218    0.0000 C   0  0  0  0  0  0  0  0  0  4  0  0
    3.4870    1.3147    0.0000 C   0  0  0  0  0  0  0  0  0  5  0  0
    2.7431    0.0122    0.0000 C   0  0  0  0  0  0  0  0  0  6  0  0
    1.2431    0.0051    0.0000 C   0  0  0  0  0  0  0  0  0  7  0  0
    0.4870    1.3006    0.0000 C   0  0  0  0  0  0  0  0  0  8  0  0
    1.2309    2.6032    0.0000 C   0  0  0  0  0  0  0  0  0  9  0  0
    0.4748    3.8987    0.0000 O   0  0  0  0  0  0  0  0  0 10  0  0
    2.7309    2.6102    0.0000 O   0  0  0  0  0  0  0  0  0 11  0  0
    2.9041   -2.3253    0.0000 H   0  0  0  0  0  0  0  0  0  0  0  0
    9.3017   -2.0060    0.0000 C   0  0  0  0  0  0  0  0  0  0  0  0
    7.9991   -1.2621    0.0000 C   0  0  0  0  0  0  0  0  0  0  0  0
    7.2552   -2.5647    0.0000 C   0  0  0  0  0  0  0  0  0  0  0  0
    5.7553   -2.5717    0.0000 C   0  0  0  0  0  0  0  0  0  0  0  0
    7.2430    0.0334    0.0000 O   0  0  0  0  0  0  0  0  0  0  0  0
    9.2946   -0.5060    0.0000 C   0  0  0  0  0  0  0  0  0  0  0  0
    5.7308    2.6244    0.0000 O   0  0  0  0  0  0  0  0  0  0  0  0
    7.2308    2.6314    0.0000 C   0  0  0  0  0  0  0  0  0  0  0  0
   -6.2690    2.5679    0.0000 C   0  0  0  0  0  0  0  0  0  0  0  0
   -5.5129    1.2724    0.0000 O   0  0  0  0  0  0  0  0  0  0  0  0
   -4.0130    1.2795    0.0000 C   0  0  0  0  0  0  0  0  0  0  0  0
   -3.2569   -0.0160    0.0000 C   0  0  0  0  0  0  0  0  0  0  0  0
   -1.7569   -0.0090    0.0000 C   0  0  0  0  0  0  0  0  0  0  0  0
   -1.0130    1.2936    0.0000 C   0  0  0  0  0  0  0  0  0  0  0  0
   -1.7691    2.5891    0.0000 C   0  0  0  0  0  0  0  0  0  0  0  0
   -3.2691    2.5820    0.0000 C   0  0  0  0  0  0  0  0  0  0  0  0
   -1.0008   -1.3045    0.0000 O   0  0  0  0  0  0  0  0  0  0  0  0
   -4.0007   -1.3186    0.0000 O   0  0  0  0  0  0  0  0  0  0  0  0
    0.6480   -1.0369    0.0000 H   0  0  0  0  0  0  0  0  0  0  0  0
  1  2  1  0  0  0  0
  1  6  2  0  0  0  0
  2  3  2  0  0  0  0
  3  4  1  0  0  0  0
  4  5  2  0  0  0  0
  5  6  1  0  0  0  0
  5 11  1  0  0  0  0
  6  7  1  0  0  0  0
  7  8  2  0  0  0  0
  8  9  1  0  0  0  0
  9 10  2  0  0  0  0
  9 11  1  0  0  0  0
  1 12  1  0  0  0  0
 13 14  1  0  0  0  0
 14 15  1  0  0  0  0
 14 17  1  0  0  0  0
 14 18  1  0  0  0  0
 15 16  2  0  0  0  0
  2 16  1  0  0  0  0
  3 17  1  0  0  0  0
 19 20  1  0  0  0  0
  4 19  1  0  0  0  0
 21 22  1  0  0  0  0
 22 23  1  0  0  0  0
 23 24  1  0  0  0  0
 23 28  2  0  0  0  0
 24 25  2  0  0  0  0
 24 30  1  0  0  0  0
 25 26  1  0  0  0  0
 25 29  1  0  0  0  0
 26 27  2  0  0  0  0
 27 28  1  0  0  0  0
  8 26  1  0  0  0  0
  7 31  1  0  0  0  0
M  END
> <score_Kier2>
0.516479

$$$$
suggested molecule #328
 MOE2019            2D

 31 34  0  0  0  0  0  0  0  0999 V2000
    3.4992   -1.2833    0.0000 C   0  0  0  0  0  0  0  0  0  1  0  0
    4.9992   -1.2762    0.0000 C   0  0  0  0  0  0  0  0  0  2  0  0
    5.7430    0.0263    0.0000 C   0  0  0  0  0  0  0  0  0  3  0  0
    4.9869    1.3218    0.0000 C   0  0  0  0  0  0  0  0  0  4  0  0
    3.4870    1.3147    0.0000 C   0  0  0  0  0  0  0  0  0  5  0  0
    2.7431    0.0122    0.0000 C   0  0  0  0  0  0  0  0  0  6  0  0
    1.2431    0.0051    0.0000 C   0  0  0  0  0  0  0  0  0  7  0  0
    0.4870    1.3006    0.0000 C   0  0  0  0  0  0  0  0  0  8  0  0
    1.2309    2.6032    0.0000 C   0  0  0  0  0  0  0  0  0  9  0  0
    0.4748    3.8987    0.0000 O   0  0  0  0  0  0  0  0  0 10  0  0
    2.7309    2.6102    0.0000 O   0  0  0  0  0  0  0  0  0 11  0  0
    2.9041   -2.3253    0.0000 H   0  0  0  0  0  0  0  0  0  0  0  0
    9.3017   -2.0060    0.0000 C   0  0  0  0  0  0  0  0  0  0  0  0
    7.9991   -1.2621    0.0000 C   0  0  0  0  0  0  0  0  0  0  0  0
    7.2552   -2.5647    0.0000 C   0  0  0  0  0  0  0  0  0  0  0  0
    5.7553   -2.5717    0.0000 C   0  0  0  0  0  0  0  0  0  0  0  0
    7.2430    0.0334    0.0000 O   0  0  0  0  0  0  0  0  0  0  0  0
    9.2946   -0.5060    0.0000 C   0  0  0  0  0  0  0  0  0  0  0  0
    5.7308    2.6244    0.0000 O   0  0  0  0  0  0  0  0  0  0  0  0
    7.2308    2.6314    0.0000 C   0  0  0  0  0  0  0  0  0  0  0  0
   -6.2690    2.5679    0.0000 C   0  0  0  0  0  0  0  0  0  0  0  0
   -5.5129    1.2724    0.0000 O   0  0  0  0  0  0  0  0  0  0  0  0
   -4.0130    1.2795    0.0000 C   0  0  0  0  0  0  0  0  0  0  0  0
   -3.2569   -0.0160    0.0000 C   0  0  0  0  0  0  0  0  0  0  0  0
   -1.7569   -0.0090    0.0000 C   0  0  0  0  0  0  0  0  0  0  0  0
   -1.0130    1.2936    0.0000 C   0  0  0  0  0  0  0  0  0  0  0  0
   -1.7691    2.5891    0.0000 C   0  0  0  0  0  0  0  0  0  0  0  0
   -3.2691    2.5820    0.0000 C   0  0  0  0  0  0  0  0  0  0  0  0
   -1.0008   -1.3045    0.0000 O   0  0  0  0  0  0  0  0  0  0  0  0
   -4.0007   -1.3186    0.0000 O   0  0  0  0  0  0  0  0  0  0  0  0
    0.6480   -1.0369    0.0000 H   0  0  0  0  0  0  0  0  0  0  0  0
  1  2  1  0  0  0  0
  1  6  2  0  0  0  0
  2  3  2  0  0  0  0
  3  4  1  0  0  0  0
  4  5  2  0  0  0  0
  5  6  1  0  0  0  0
  5 11  1  0  0  0  0
  6  7  1  0  0  0  0
  7  8  2  0  0  0  0
  8  9  1  0  0  0  0
  9 10  2  0  0  0  0
  9 11  1  0  0  0  0
  1 12  1  0  0  0  0
 13 14  1  0  0  0  0
 14 15  1  0  0  0  0
 14 17  1  0  0  0  0
 14 18  1  0  0  0  0
 15 16  2  0  0  0  0
  2 16  1  0  0  0  0
  3 17  1  0  0  0  0
 19 20  1  0  0  0  0
  4 19  1  0  0  0  0
 21 22  1  0  0  0  0
 22 23  1  0  0  0  0
 23 24  1  0  0  0  0
 23 28  2  0  0  0  0
 24 25  2  0  0  0  0
 24 30  1  0  0  0  0
 25 26  1  0  0  0  0
 25 29  1  0  0  0  0
 26 27  2  0  0  0  0
 27 28  1  0  0  0  0
  8 26  1  0  0  0  0
  7 31  1  0  0  0  0
M  END
> <score_Kier3>
0.511485

$$$$
suggested molecule #329
 MOE2019            2D

 31 34  0  0  0  0  0  0  0  0999 V2000
    3.4992   -1.2833    0.0000 C   0  0  0  0  0  0  0  0  0  1  0  0
    4.9992   -1.2762    0.0000 C   0  0  0  0  0  0  0  0  0  2  0  0
    5.7430    0.0263    0.0000 C   0  0  0  0  0  0  0  0  0  3  0  0
    4.9869    1.3218    0.0000 C   0  0  0  0  0  0  0  0  0  4  0  0
    3.4870    1.3147    0.0000 C   0  0  0  0  0  0  0  0  0  5  0  0
    2.7431    0.0122    0.0000 C   0  0  0  0  0  0  0  0  0  6  0  0
    1.2431    0.0051    0.0000 C   0  0  0  0  0  0  0  0  0  7  0  0
    0.4870    1.3006    0.0000 C   0  0  0  0  0  0  0  0  0  8  0  0
    1.2309    2.6032    0.0000 C   0  0  0  0  0  0  0  0  0  9  0  0
    0.4748    3.8987    0.0000 O   0  0  0  0  0  0  0  0  0 10  0  0
    2.7309    2.6102    0.0000 O   0  0  0  0  0  0  0  0  0 11  0  0
    2.9041   -2.3253    0.0000 H   0  0  0  0  0  0  0  0  0  0  0  0
    9.3017   -2.0060    0.0000 C   0  0  0  0  0  0  0  0  0  0  0  0
    7.9991   -1.2621    0.0000 C   0  0  0  0  0  0  0  0  0  0  0  0
    7.2552   -2.5647    0.0000 C   0  0  0  0  0  0  0  0  0  0  0  0
    5.7553   -2.5717    0.0000 C   0  0  0  0  0  0  0  0  0  0  0  0
    7.2430    0.0334    0.0000 O   0  0  0  0  0  0  0  0  0  0  0  0
    9.2946   -0.5060    0.0000 C   0  0  0  0  0  0  0  0  0  0  0  0
    5.7308    2.6244    0.0000 O   0  0  0  0  0  0  0  0  0  0  0  0
    7.2308    2.6314    0.0000 C   0  0  0  0  0  0  0  0  0  0  0  0
   -6.2690    2.5679    0.0000 C   0  0  0  0  0  0  0  0  0  0  0  0
   -5.5129    1.2724    0.0000 O   0  0  0  0  0  0  0  0  0  0  0  0
   -4.0130    1.2795    0.0000 C   0  0  0  0  0  0  0  0  0  0  0  0
   -3.2569   -0.0160    0.0000 C   0  0  0  0  0  0  0  0  0  0  0  0
   -1.7569   -0.0090    0.0000 C   0  0  0  0  0  0  0  0  0  0  0  0
   -1.0130    1.2936    0.0000 C   0  0  0  0  0  0  0  0  0  0  0  0
   -1.7691    2.5891    0.0000 C   0  0  0  0  0  0  0  0  0  0  0  0
   -3.2691    2.5820    0.0000 C   0  0  0  0  0  0  0  0  0  0  0  0
   -1.0008   -1.3045    0.0000 O   0  0  0  0  0  0  0  0  0  0  0  0
   -4.0007   -1.3186    0.0000 O   0  0  0  0  0  0  0  0  0  0  0  0
    0.6480   -1.0369    0.0000 H   0  0  0  0  0  0  0  0  0  0  0  0
  1  2  1  0  0  0  0
  1  6  2  0  0  0  0
  2  3  2  0  0  0  0
  3  4  1  0  0  0  0
  4  5  2  0  0  0  0
  5  6  1  0  0  0  0
  5 11  1  0  0  0  0
  6  7  1  0  0  0  0
  7  8  2  0  0  0  0
  8  9  1  0  0  0  0
  9 10  2  0  0  0  0
  9 11  1  0  0  0  0
  1 12  1  0  0  0  0
 13 14  1  0  0  0  0
 14 15  1  0  0  0  0
 14 17  1  0  0  0  0
 14 18  1  0  0  0  0
 15 16  2  0  0  0  0
  2 16  1  0  0  0  0
  3 17  1  0  0  0  0
 19 20  1  0  0  0  0
  4 19  1  0  0  0  0
 21 22  1  0  0  0  0
 22 23  1  0  0  0  0
 23 24  1  0  0  0  0
 23 28  2  0  0  0  0
 24 25  2  0  0  0  0
 24 30  1  0  0  0  0
 25 26  1  0  0  0  0
 25 29  1  0  0  0  0
 26 27  2  0  0  0  0
 27 28  1  0  0  0  0
  8 26  1  0  0  0  0
  7 31  1  0  0  0  0
M  END
> <score_KierA1>
0.517655

$$$$
suggested molecule #330
 MOE2019            2D

 31 34  0  0  0  0  0  0  0  0999 V2000
    3.4992   -1.2833    0.0000 C   0  0  0  0  0  0  0  0  0  1  0  0
    4.9992   -1.2762    0.0000 C   0  0  0  0  0  0  0  0  0  2  0  0
    5.7430    0.0263    0.0000 C   0  0  0  0  0  0  0  0  0  3  0  0
    4.9869    1.3218    0.0000 C   0  0  0  0  0  0  0  0  0  4  0  0
    3.4870    1.3147    0.0000 C   0  0  0  0  0  0  0  0  0  5  0  0
    2.7431    0.0122    0.0000 C   0  0  0  0  0  0  0  0  0  6  0  0
    1.2431    0.0051    0.0000 C   0  0  0  0  0  0  0  0  0  7  0  0
    0.4870    1.3006    0.0000 C   0  0  0  0  0  0  0  0  0  8  0  0
    1.2309    2.6032    0.0000 C   0  0  0  0  0  0  0  0  0  9  0  0
    0.4748    3.8987    0.0000 O   0  0  0  0  0  0  0  0  0 10  0  0
    2.7309    2.6102    0.0000 O   0  0  0  0  0  0  0  0  0 11  0  0
    2.9041   -2.3253    0.0000 H   0  0  0  0  0  0  0  0  0  0  0  0
    9.3017   -2.0060    0.0000 C   0  0  0  0  0  0  0  0  0  0  0  0
    7.9991   -1.2621    0.0000 C   0  0  0  0  0  0  0  0  0  0  0  0
    7.2552   -2.5647    0.0000 C   0  0  0  0  0  0  0  0  0  0  0  0
    5.7553   -2.5717    0.0000 C   0  0  0  0  0  0  0  0  0  0  0  0
    7.2430    0.0334    0.0000 O   0  0  0  0  0  0  0  0  0  0  0  0
    9.2946   -0.5060    0.0000 C   0  0  0  0  0  0  0  0  0  0  0  0
    5.7308    2.6244    0.0000 O   0  0  0  0  0  0  0  0  0  0  0  0
    7.2308    2.6314    0.0000 C   0  0  0  0  0  0  0  0  0  0  0  0
   -6.2690    2.5679    0.0000 C   0  0  0  0  0  0  0  0  0  0  0  0
   -5.5129    1.2724    0.0000 O   0  0  0  0  0  0  0  0  0  0  0  0
   -4.0130    1.2795    0.0000 C   0  0  0  0  0  0  0  0  0  0  0  0
   -3.2569   -0.0160    0.0000 C   0  0  0  0  0  0  0  0  0  0  0  0
   -1.7569   -0.0090    0.0000 C   0  0  0  0  0  0  0  0  0  0  0  0
   -1.0130    1.2936    0.0000 C   0  0  0  0  0  0  0  0  0  0  0  0
   -1.7691    2.5891    0.0000 C   0  0  0  0  0  0  0  0  0  0  0  0
   -3.2691    2.5820    0.0000 C   0  0  0  0  0  0  0  0  0  0  0  0
   -1.0008   -1.3045    0.0000 O   0  0  0  0  0  0  0  0  0  0  0  0
   -4.0007   -1.3186    0.0000 O   0  0  0  0  0  0  0  0  0  0  0  0
    0.6480   -1.0369    0.0000 H   0  0  0  0  0  0  0  0  0  0  0  0
  1  2  1  0  0  0  0
  1  6  2  0  0  0  0
  2  3  2  0  0  0  0
  3  4  1  0  0  0  0
  4  5  2  0  0  0  0
  5  6  1  0  0  0  0
  5 11  1  0  0  0  0
  6  7  1  0  0  0  0
  7  8  2  0  0  0  0
  8  9  1  0  0  0  0
  9 10  2  0  0  0  0
  9 11  1  0  0  0  0
  1 12  1  0  0  0  0
 13 14  1  0  0  0  0
 14 15  1  0  0  0  0
 14 17  1  0  0  0  0
 14 18  1  0  0  0  0
 15 16  2  0  0  0  0
  2 16  1  0  0  0  0
  3 17  1  0  0  0  0
 19 20  1  0  0  0  0
  4 19  1  0  0  0  0
 21 22  1  0  0  0  0
 22 23  1  0  0  0  0
 23 24  1  0  0  0  0
 23 28  2  0  0  0  0
 24 25  2  0  0  0  0
 24 30  1  0  0  0  0
 25 26  1  0  0  0  0
 25 29  1  0  0  0  0
 26 27  2  0  0  0  0
 27 28  1  0  0  0  0
  8 26  1  0  0  0  0
  7 31  1  0  0  0  0
M  END
> <score_KierA2>
0.516754

$$$$
suggested molecule #331
 MOE2019            2D

 31 34  0  0  0  0  0  0  0  0999 V2000
    3.4992   -1.2833    0.0000 C   0  0  0  0  0  0  0  0  0  1  0  0
    4.9992   -1.2762    0.0000 C   0  0  0  0  0  0  0  0  0  2  0  0
    5.7430    0.0263    0.0000 C   0  0  0  0  0  0  0  0  0  3  0  0
    4.9869    1.3218    0.0000 C   0  0  0  0  0  0  0  0  0  4  0  0
    3.4870    1.3147    0.0000 C   0  0  0  0  0  0  0  0  0  5  0  0
    2.7431    0.0122    0.0000 C   0  0  0  0  0  0  0  0  0  6  0  0
    1.2431    0.0051    0.0000 C   0  0  0  0  0  0  0  0  0  7  0  0
    0.4870    1.3006    0.0000 C   0  0  0  0  0  0  0  0  0  8  0  0
    1.2309    2.6032    0.0000 C   0  0  0  0  0  0  0  0  0  9  0  0
    0.4748    3.8987    0.0000 O   0  0  0  0  0  0  0  0  0 10  0  0
    2.7309    2.6102    0.0000 O   0  0  0  0  0  0  0  0  0 11  0  0
    2.9041   -2.3253    0.0000 H   0  0  0  0  0  0  0  0  0  0  0  0
    9.3017   -2.0060    0.0000 C   0  0  0  0  0  0  0  0  0  0  0  0
    7.9991   -1.2621    0.0000 C   0  0  0  0  0  0  0  0  0  0  0  0
    7.2552   -2.5647    0.0000 C   0  0  0  0  0  0  0  0  0  0  0  0
    5.7553   -2.5717    0.0000 C   0  0  0  0  0  0  0  0  0  0  0  0
    7.2430    0.0334    0.0000 O   0  0  0  0  0  0  0  0  0  0  0  0
    9.2946   -0.5060    0.0000 C   0  0  0  0  0  0  0  0  0  0  0  0
    5.7308    2.6244    0.0000 O   0  0  0  0  0  0  0  0  0  0  0  0
    7.2308    2.6314    0.0000 C   0  0  0  0  0  0  0  0  0  0  0  0
   -6.2690    2.5679    0.0000 C   0  0  0  0  0  0  0  0  0  0  0  0
   -5.5129    1.2724    0.0000 O   0  0  0  0  0  0  0  0  0  0  0  0
   -4.0130    1.2795    0.0000 C   0  0  0  0  0  0  0  0  0  0  0  0
   -3.2569   -0.0160    0.0000 C   0  0  0  0  0  0  0  0  0  0  0  0
   -1.7569   -0.0090    0.0000 C   0  0  0  0  0  0  0  0  0  0  0  0
   -1.0130    1.2936    0.0000 C   0  0  0  0  0  0  0  0  0  0  0  0
   -1.7691    2.5891    0.0000 C   0  0  0  0  0  0  0  0  0  0  0  0
   -3.2691    2.5820    0.0000 C   0  0  0  0  0  0  0  0  0  0  0  0
   -1.0008   -1.3045    0.0000 O   0  0  0  0  0  0  0  0  0  0  0  0
   -4.0007   -1.3186    0.0000 O   0  0  0  0  0  0  0  0  0  0  0  0
    0.6480   -1.0369    0.0000 H   0  0  0  0  0  0  0  0  0  0  0  0
  1  2  1  0  0  0  0
  1  6  2  0  0  0  0
  2  3  2  0  0  0  0
  3  4  1  0  0  0  0
  4  5  2  0  0  0  0
  5  6  1  0  0  0  0
  5 11  1  0  0  0  0
  6  7  1  0  0  0  0
  7  8  2  0  0  0  0
  8  9  1  0  0  0  0
  9 10  2  0  0  0  0
  9 11  1  0  0  0  0
  1 12  1  0  0  0  0
 13 14  1  0  0  0  0
 14 15  1  0  0  0  0
 14 17  1  0  0  0  0
 14 18  1  0  0  0  0
 15 16  2  0  0  0  0
  2 16  1  0  0  0  0
  3 17  1  0  0  0  0
 19 20  1  0  0  0  0
  4 19  1  0  0  0  0
 21 22  1  0  0  0  0
 22 23  1  0  0  0  0
 23 24  1  0  0  0  0
 23 28  2  0  0  0  0
 24 25  2  0  0  0  0
 24 30  1  0  0  0  0
 25 26  1  0  0  0  0
 25 29  1  0  0  0  0
 26 27  2  0  0  0  0
 27 28  1  0  0  0  0
  8 26  1  0  0  0  0
  7 31  1  0  0  0  0
M  END
> <score_KierFlex>
0.516325

$$$$
suggested molecule #332
 MOE2019            2D

 23 25  0  0  0  0  0  0  0  0999 V2000
    3.4992   -1.2833    0.0000 C   0  0  0  0  0  0  0  0  0  1  0  0
    4.9992   -1.2762    0.0000 C   0  0  0  0  0  0  0  0  0  2  0  0
    5.7430    0.0263    0.0000 C   0  0  0  0  0  0  0  0  0  3  0  0
    4.9869    1.3218    0.0000 C   0  0  0  0  0  0  0  0  0  4  0  0
    3.4870    1.3147    0.0000 C   0  0  0  0  0  0  0  0  0  5  0  0
    2.7431    0.0122    0.0000 C   0  0  0  0  0  0  0  0  0  6  0  0
    1.2431    0.0051    0.0000 C   0  0  0  0  0  0  0  0  0  7  0  0
    0.4870    1.3006    0.0000 C   0  0  0  0  0  0  0  0  0  8  0  0
    1.2309    2.6032    0.0000 C   0  0  0  0  0  0  0  0  0  9  0  0
    0.4748    3.8987    0.0000 O   0  0  0  0  0  0  0  0  0 10  0  0
    2.7309    2.6102    0.0000 O   0  0  0  0  0  0  0  0  0 11  0  0
    2.9041   -2.3253    0.0000 H   0  0  0  0  0  0  0  0  0  0  0  0
    9.2946   -0.5060    0.0000 C   0  0  0  0  0  0  0  0  0  0  0  0
    7.9991   -1.2621    0.0000 C   0  0  0  0  0  0  0  0  0  0  0  0
    7.2552   -2.5647    0.0000 C   0  0  0  0  0  0  0  0  0  0  0  0
    5.7553   -2.5717    0.0000 C   0  0  0  0  0  0  0  0  0  0  0  0
    7.2430    0.0334    0.0000 O   0  0  0  0  0  0  0  0  0  0  0  0
    9.3017   -2.0060    0.0000 C   0  0  0  0  0  0  0  0  0  0  0  0
    5.7308    2.6244    0.0000 O   0  0  0  0  0  0  0  0  0  0  0  0
    4.9747    3.9198    0.0000 C   0  0  0  0  0  0  0  0  0  0  0  0
   -1.0130    1.2936    0.0000 O   0  0  0  0  0  0  0  0  0  0  0  0
   -1.7569   -0.0090    0.0000 C   0  0  0  0  0  0  0  0  0  0  0  0
    0.6480   -1.0369    0.0000 H   0  0  0  0  0  0  0  0  0  0  0  0
  1  2  1  0  0  0  0
  1  6  2  0  0  0  0
  2  3  2  0  0  0  0
  3  4  1  0  0  0  0
  4  5  2  0  0  0  0
  5  6  1  0  0  0  0
  5 11  1  0  0  0  0
  6  7  1  0  0  0  0
  7  8  2  0  0  0  0
  8  9  1  0  0  0  0
  9 10  2  0  0  0  0
  9 11  1  0  0  0  0
  1 12  1  0  0  0  0
 13 14  1  0  0  0  0
 14 15  1  0  0  0  0
 14 17  1  0  0  0  0
 14 18  1  0  0  0  0
 15 16  2  0  0  0  0
  2 16  1  0  0  0  0
  3 17  1  0  0  0  0
 19 20  1  0  0  0  0
  4 19  1  0  0  0  0
 21 22  1  0  0  0  0
  8 21  1  0  0  0  0
  7 23  1  0  0  0  0
M  END
> <score_Kier3>
0.511466

$$$$
suggested molecule #333
 MOE2019            2D

 31 34  0  0  0  0  0  0  0  0999 V2000
    3.4992   -1.2833    0.0000 C   0  0  0  0  0  0  0  0  0  1  0  0
    4.9992   -1.2762    0.0000 C   0  0  0  0  0  0  0  0  0  2  0  0
    5.7430    0.0263    0.0000 C   0  0  0  0  0  0  0  0  0  3  0  0
    4.9869    1.3218    0.0000 C   0  0  0  0  0  0  0  0  0  4  0  0
    3.4870    1.3147    0.0000 C   0  0  0  0  0  0  0  0  0  5  0  0
    2.7431    0.0122    0.0000 C   0  0  0  0  0  0  0  0  0  6  0  0
    1.2431    0.0051    0.0000 C   0  0  0  0  0  0  0  0  0  7  0  0
    0.4870    1.3006    0.0000 C   0  0  0  0  0  0  0  0  0  8  0  0
    1.2309    2.6032    0.0000 C   0  0  0  0  0  0  0  0  0  9  0  0
    0.4748    3.8987    0.0000 O   0  0  0  0  0  0  0  0  0 10  0  0
    2.7309    2.6102    0.0000 O   0  0  0  0  0  0  0  0  0 11  0  0
    2.9041   -2.3253    0.0000 H   0  0  0  0  0  0  0  0  0  0  0  0
    9.3017   -2.0060    0.0000 C   0  0  0  0  0  0  0  0  0  0  0  0
    7.9991   -1.2621    0.0000 C   0  0  0  0  0  0  0  0  0  0  0  0
    7.2552   -2.5647    0.0000 C   0  0  0  0  0  0  0  0  0  0  0  0
    5.7553   -2.5717    0.0000 C   0  0  0  0  0  0  0  0  0  0  0  0
    7.2430    0.0334    0.0000 O   0  0  0  0  0  0  0  0  0  0  0  0
    9.2946   -0.5060    0.0000 C   0  0  0  0  0  0  0  0  0  0  0  0
    5.7308    2.6244    0.0000 O   0  0  0  0  0  0  0  0  0  0  0  0
    7.2308    2.6314    0.0000 C   0  0  0  0  0  0  0  0  0  0  0  0
   -6.2690    2.5679    0.0000 C   0  0  0  0  0  0  0  0  0  0  0  0
   -5.5129    1.2724    0.0000 O   0  0  0  0  0  0  0  0  0  0  0  0
   -4.0130    1.2795    0.0000 C   0  0  0  0  0  0  0  0  0  0  0  0
   -3.2569   -0.0160    0.0000 C   0  0  0  0  0  0  0  0  0  0  0  0
   -1.7569   -0.0090    0.0000 C   0  0  0  0  0  0  0  0  0  0  0  0
   -1.0130    1.2936    0.0000 C   0  0  0  0  0  0  0  0  0  0  0  0
   -1.7691    2.5891    0.0000 C   0  0  0  0  0  0  0  0  0  0  0  0
   -3.2691    2.5820    0.0000 C   0  0  0  0  0  0  0  0  0  0  0  0
   -1.0008   -1.3045    0.0000 O   0  0  0  0  0  0  0  0  0  0  0  0
   -1.7447   -2.6070    0.0000 C   0  0  0  0  0  0  0  0  0  0  0  0
    0.6480   -1.0369    0.0000 H   0  0  0  0  0  0  0  0  0  0  0  0
  1  2  1  0  0  0  0
  1  6  2  0  0  0  0
  2  3  2  0  0  0  0
  3  4  1  0  0  0  0
  4  5  2  0  0  0  0
  5  6  1  0  0  0  0
  5 11  1  0  0  0  0
  6  7  1  0  0  0  0
  7  8  2  0  0  0  0
  8  9  1  0  0  0  0
  9 10  2  0  0  0  0
  9 11  1  0  0  0  0
  1 12  1  0  0  0  0
 13 14  1  0  0  0  0
 14 15  1  0  0  0  0
 14 17  1  0  0  0  0
 14 18  1  0  0  0  0
 15 16  2  0  0  0  0
  2 16  1  0  0  0  0
  3 17  1  0  0  0  0
 19 20  1  0  0  0  0
  4 19  1  0  0  0  0
 21 22  1  0  0  0  0
 22 23  1  0  0  0  0
 23 24  1  0  0  0  0
 23 28  2  0  0  0  0
 24 25  2  0  0  0  0
 25 26  1  0  0  0  0
 25 29  1  0  0  0  0
 26 27  2  0  0  0  0
 27 28  1  0  0  0  0
 29 30  1  0  0  0  0
  8 26  1  0  0  0  0
  7 31  1  0  0  0  0
M  END
> <score_Kier1>
0.517734

$$$$
suggested molecule #334
 MOE2019            2D

 31 34  0  0  0  0  0  0  0  0999 V2000
    3.4992   -1.2833    0.0000 C   0  0  0  0  0  0  0  0  0  1  0  0
    4.9992   -1.2762    0.0000 C   0  0  0  0  0  0  0  0  0  2  0  0
    5.7430    0.0263    0.0000 C   0  0  0  0  0  0  0  0  0  3  0  0
    4.9869    1.3218    0.0000 C   0  0  0  0  0  0  0  0  0  4  0  0
    3.4870    1.3147    0.0000 C   0  0  0  0  0  0  0  0  0  5  0  0
    2.7431    0.0122    0.0000 C   0  0  0  0  0  0  0  0  0  6  0  0
    1.2431    0.0051    0.0000 C   0  0  0  0  0  0  0  0  0  7  0  0
    0.4870    1.3006    0.0000 C   0  0  0  0  0  0  0  0  0  8  0  0
    1.2309    2.6032    0.0000 C   0  0  0  0  0  0  0  0  0  9  0  0
    0.4748    3.8987    0.0000 O   0  0  0  0  0  0  0  0  0 10  0  0
    2.7309    2.6102    0.0000 O   0  0  0  0  0  0  0  0  0 11  0  0
    2.9041   -2.3253    0.0000 H   0  0  0  0  0  0  0  0  0  0  0  0
    9.3017   -2.0060    0.0000 C   0  0  0  0  0  0  0  0  0  0  0  0
    7.9991   -1.2621    0.0000 C   0  0  0  0  0  0  0  0  0  0  0  0
    7.2552   -2.5647    0.0000 C   0  0  0  0  0  0  0  0  0  0  0  0
    5.7553   -2.5717    0.0000 C   0  0  0  0  0  0  0  0  0  0  0  0
    7.2430    0.0334    0.0000 O   0  0  0  0  0  0  0  0  0  0  0  0
    9.2946   -0.5060    0.0000 C   0  0  0  0  0  0  0  0  0  0  0  0
    5.7308    2.6244    0.0000 O   0  0  0  0  0  0  0  0  0  0  0  0
    7.2308    2.6314    0.0000 C   0  0  0  0  0  0  0  0  0  0  0  0
   -6.2690    2.5679    0.0000 C   0  0  0  0  0  0  0  0  0  0  0  0
   -5.5129    1.2724    0.0000 O   0  0  0  0  0  0  0  0  0  0  0  0
   -4.0130    1.2795    0.0000 C   0  0  0  0  0  0  0  0  0  0  0  0
   -3.2569   -0.0160    0.0000 C   0  0  0  0  0  0  0  0  0  0  0  0
   -1.7569   -0.0090    0.0000 C   0  0  0  0  0  0  0  0  0  0  0  0
   -1.0130    1.2936    0.0000 C   0  0  0  0  0  0  0  0  0  0  0  0
   -1.7691    2.5891    0.0000 C   0  0  0  0  0  0  0  0  0  0  0  0
   -3.2691    2.5820    0.0000 C   0  0  0  0  0  0  0  0  0  0  0  0
   -1.0008   -1.3045    0.0000 O   0  0  0  0  0  0  0  0  0  0  0  0
   -1.7447   -2.6070    0.0000 C   0  0  0  0  0  0  0  0  0  0  0  0
    0.6480   -1.0369    0.0000 H   0  0  0  0  0  0  0  0  0  0  0  0
  1  2  1  0  0  0  0
  1  6  2  0  0  0  0
  2  3  2  0  0  0  0
  3  4  1  0  0  0  0
  4  5  2  0  0  0  0
  5  6  1  0  0  0  0
  5 11  1  0  0  0  0
  6  7  1  0  0  0  0
  7  8  2  0  0  0  0
  8  9  1  0  0  0  0
  9 10  2  0  0  0  0
  9 11  1  0  0  0  0
  1 12  1  0  0  0  0
 13 14  1  0  0  0  0
 14 15  1  0  0  0  0
 14 17  1  0  0  0  0
 14 18  1  0  0  0  0
 15 16  2  0  0  0  0
  2 16  1  0  0  0  0
  3 17  1  0  0  0  0
 19 20  1  0  0  0  0
  4 19  1  0  0  0  0
 21 22  1  0  0  0  0
 22 23  1  0  0  0  0
 23 24  1  0  0  0  0
 23 28  2  0  0  0  0
 24 25  2  0  0  0  0
 25 26  1  0  0  0  0
 25 29  1  0  0  0  0
 26 27  2  0  0  0  0
 27 28  1  0  0  0  0
 29 30  1  0  0  0  0
  8 26  1  0  0  0  0
  7 31  1  0  0  0  0
M  END
> <score_Kier2>
0.516473

$$$$
suggested molecule #335
 MOE2019            2D

 31 34  0  0  0  0  0  0  0  0999 V2000
    3.4992   -1.2833    0.0000 C   0  0  0  0  0  0  0  0  0  1  0  0
    4.9992   -1.2762    0.0000 C   0  0  0  0  0  0  0  0  0  2  0  0
    5.7430    0.0263    0.0000 C   0  0  0  0  0  0  0  0  0  3  0  0
    4.9869    1.3218    0.0000 C   0  0  0  0  0  0  0  0  0  4  0  0
    3.4870    1.3147    0.0000 C   0  0  0  0  0  0  0  0  0  5  0  0
    2.7431    0.0122    0.0000 C   0  0  0  0  0  0  0  0  0  6  0  0
    1.2431    0.0051    0.0000 C   0  0  0  0  0  0  0  0  0  7  0  0
    0.4870    1.3006    0.0000 C   0  0  0  0  0  0  0  0  0  8  0  0
    1.2309    2.6032    0.0000 C   0  0  0  0  0  0  0  0  0  9  0  0
    0.4748    3.8987    0.0000 O   0  0  0  0  0  0  0  0  0 10  0  0
    2.7309    2.6102    0.0000 O   0  0  0  0  0  0  0  0  0 11  0  0
    2.9041   -2.3253    0.0000 H   0  0  0  0  0  0  0  0  0  0  0  0
    9.3017   -2.0060    0.0000 C   0  0  0  0  0  0  0  0  0  0  0  0
    7.9991   -1.2621    0.0000 C   0  0  0  0  0  0  0  0  0  0  0  0
    7.2552   -2.5647    0.0000 C   0  0  0  0  0  0  0  0  0  0  0  0
    5.7553   -2.5717    0.0000 C   0  0  0  0  0  0  0  0  0  0  0  0
    7.2430    0.0334    0.0000 O   0  0  0  0  0  0  0  0  0  0  0  0
    9.2946   -0.5060    0.0000 C   0  0  0  0  0  0  0  0  0  0  0  0
    5.7308    2.6244    0.0000 O   0  0  0  0  0  0  0  0  0  0  0  0
    7.2308    2.6314    0.0000 C   0  0  0  0  0  0  0  0  0  0  0  0
   -6.2690    2.5679    0.0000 C   0  0  0  0  0  0  0  0  0  0  0  0
   -5.5129    1.2724    0.0000 O   0  0  0  0  0  0  0  0  0  0  0  0
   -4.0130    1.2795    0.0000 C   0  0  0  0  0  0  0  0  0  0  0  0
   -3.2569   -0.0160    0.0000 C   0  0  0  0  0  0  0  0  0  0  0  0
   -1.7569   -0.0090    0.0000 C   0  0  0  0  0  0  0  0  0  0  0  0
   -1.0130    1.2936    0.0000 C   0  0  0  0  0  0  0  0  0  0  0  0
   -1.7691    2.5891    0.0000 C   0  0  0  0  0  0  0  0  0  0  0  0
   -3.2691    2.5820    0.0000 C   0  0  0  0  0  0  0  0  0  0  0  0
   -1.0008   -1.3045    0.0000 O   0  0  0  0  0  0  0  0  0  0  0  0
   -1.7447   -2.6070    0.0000 C   0  0  0  0  0  0  0  0  0  0  0  0
    0.6480   -1.0369    0.0000 H   0  0  0  0  0  0  0  0  0  0  0  0
  1  2  1  0  0  0  0
  1  6  2  0  0  0  0
  2  3  2  0  0  0  0
  3  4  1  0  0  0  0
  4  5  2  0  0  0  0
  5  6  1  0  0  0  0
  5 11  1  0  0  0  0
  6  7  1  0  0  0  0
  7  8  2  0  0  0  0
  8  9  1  0  0  0  0
  9 10  2  0  0  0  0
  9 11  1  0  0  0  0
  1 12  1  0  0  0  0
 13 14  1  0  0  0  0
 14 15  1  0  0  0  0
 14 17  1  0  0  0  0
 14 18  1  0  0  0  0
 15 16  2  0  0  0  0
  2 16  1  0  0  0  0
  3 17  1  0  0  0  0
 19 20  1  0  0  0  0
  4 19  1  0  0  0  0
 21 22  1  0  0  0  0
 22 23  1  0  0  0  0
 23 24  1  0  0  0  0
 23 28  2  0  0  0  0
 24 25  2  0  0  0  0
 25 26  1  0  0  0  0
 25 29  1  0  0  0  0
 26 27  2  0  0  0  0
 27 28  1  0  0  0  0
 29 30  1  0  0  0  0
  8 26  1  0  0  0  0
  7 31  1  0  0  0  0
M  END
> <score_Kier3>
0.511476

$$$$
suggested molecule #336
 MOE2019            2D

 31 34  0  0  0  0  0  0  0  0999 V2000
    3.4992   -1.2833    0.0000 C   0  0  0  0  0  0  0  0  0  1  0  0
    4.9992   -1.2762    0.0000 C   0  0  0  0  0  0  0  0  0  2  0  0
    5.7430    0.0263    0.0000 C   0  0  0  0  0  0  0  0  0  3  0  0
    4.9869    1.3218    0.0000 C   0  0  0  0  0  0  0  0  0  4  0  0
    3.4870    1.3147    0.0000 C   0  0  0  0  0  0  0  0  0  5  0  0
    2.7431    0.0122    0.0000 C   0  0  0  0  0  0  0  0  0  6  0  0
    1.2431    0.0051    0.0000 C   0  0  0  0  0  0  0  0  0  7  0  0
    0.4870    1.3006    0.0000 C   0  0  0  0  0  0  0  0  0  8  0  0
    1.2309    2.6032    0.0000 C   0  0  0  0  0  0  0  0  0  9  0  0
    0.4748    3.8987    0.0000 O   0  0  0  0  0  0  0  0  0 10  0  0
    2.7309    2.6102    0.0000 O   0  0  0  0  0  0  0  0  0 11  0  0
    2.9041   -2.3253    0.0000 H   0  0  0  0  0  0  0  0  0  0  0  0
    9.3017   -2.0060    0.0000 C   0  0  0  0  0  0  0  0  0  0  0  0
    7.9991   -1.2621    0.0000 C   0  0  0  0  0  0  0  0  0  0  0  0
    7.2552   -2.5647    0.0000 C   0  0  0  0  0  0  0  0  0  0  0  0
    5.7553   -2.5717    0.0000 C   0  0  0  0  0  0  0  0  0  0  0  0
    7.2430    0.0334    0.0000 O   0  0  0  0  0  0  0  0  0  0  0  0
    9.2946   -0.5060    0.0000 C   0  0  0  0  0  0  0  0  0  0  0  0
    5.7308    2.6244    0.0000 O   0  0  0  0  0  0  0  0  0  0  0  0
    7.2308    2.6314    0.0000 C   0  0  0  0  0  0  0  0  0  0  0  0
   -6.2690    2.5679    0.0000 C   0  0  0  0  0  0  0  0  0  0  0  0
   -5.5129    1.2724    0.0000 O   0  0  0  0  0  0  0  0  0  0  0  0
   -4.0130    1.2795    0.0000 C   0  0  0  0  0  0  0  0  0  0  0  0
   -3.2569   -0.0160    0.0000 C   0  0  0  0  0  0  0  0  0  0  0  0
   -1.7569   -0.0090    0.0000 C   0  0  0  0  0  0  0  0  0  0  0  0
   -1.0130    1.2936    0.0000 C   0  0  0  0  0  0  0  0  0  0  0  0
   -1.7691    2.5891    0.0000 C   0  0  0  0  0  0  0  0  0  0  0  0
   -3.2691    2.5820    0.0000 C   0  0  0  0  0  0  0  0  0  0  0  0
   -1.0008   -1.3045    0.0000 O   0  0  0  0  0  0  0  0  0  0  0  0
   -1.7447   -2.6070    0.0000 C   0  0  0  0  0  0  0  0  0  0  0  0
    0.6480   -1.0369    0.0000 H   0  0  0  0  0  0  0  0  0  0  0  0
  1  2  1  0  0  0  0
  1  6  2  0  0  0  0
  2  3  2  0  0  0  0
  3  4  1  0  0  0  0
  4  5  2  0  0  0  0
  5  6  1  0  0  0  0
  5 11  1  0  0  0  0
  6  7  1  0  0  0  0
  7  8  2  0  0  0  0
  8  9  1  0  0  0  0
  9 10  2  0  0  0  0
  9 11  1  0  0  0  0
  1 12  1  0  0  0  0
 13 14  1  0  0  0  0
 14 15  1  0  0  0  0
 14 17  1  0  0  0  0
 14 18  1  0  0  0  0
 15 16  2  0  0  0  0
  2 16  1  0  0  0  0
  3 17  1  0  0  0  0
 19 20  1  0  0  0  0
  4 19  1  0  0  0  0
 21 22  1  0  0  0  0
 22 23  1  0  0  0  0
 23 24  1  0  0  0  0
 23 28  2  0  0  0  0
 24 25  2  0  0  0  0
 25 26  1  0  0  0  0
 25 29  1  0  0  0  0
 26 27  2  0  0  0  0
 27 28  1  0  0  0  0
 29 30  1  0  0  0  0
  8 26  1  0  0  0  0
  7 31  1  0  0  0  0
M  END
> <score_KierA1>
0.517655

$$$$
suggested molecule #337
 MOE2019            2D

 31 34  0  0  0  0  0  0  0  0999 V2000
    3.4992   -1.2833    0.0000 C   0  0  0  0  0  0  0  0  0  1  0  0
    4.9992   -1.2762    0.0000 C   0  0  0  0  0  0  0  0  0  2  0  0
    5.7430    0.0263    0.0000 C   0  0  0  0  0  0  0  0  0  3  0  0
    4.9869    1.3218    0.0000 C   0  0  0  0  0  0  0  0  0  4  0  0
    3.4870    1.3147    0.0000 C   0  0  0  0  0  0  0  0  0  5  0  0
    2.7431    0.0122    0.0000 C   0  0  0  0  0  0  0  0  0  6  0  0
    1.2431    0.0051    0.0000 C   0  0  0  0  0  0  0  0  0  7  0  0
    0.4870    1.3006    0.0000 C   0  0  0  0  0  0  0  0  0  8  0  0
    1.2309    2.6032    0.0000 C   0  0  0  0  0  0  0  0  0  9  0  0
    0.4748    3.8987    0.0000 O   0  0  0  0  0  0  0  0  0 10  0  0
    2.7309    2.6102    0.0000 O   0  0  0  0  0  0  0  0  0 11  0  0
    2.9041   -2.3253    0.0000 H   0  0  0  0  0  0  0  0  0  0  0  0
    9.3017   -2.0060    0.0000 C   0  0  0  0  0  0  0  0  0  0  0  0
    7.9991   -1.2621    0.0000 C   0  0  0  0  0  0  0  0  0  0  0  0
    7.2552   -2.5647    0.0000 C   0  0  0  0  0  0  0  0  0  0  0  0
    5.7553   -2.5717    0.0000 C   0  0  0  0  0  0  0  0  0  0  0  0
    7.2430    0.0334    0.0000 O   0  0  0  0  0  0  0  0  0  0  0  0
    9.2946   -0.5060    0.0000 C   0  0  0  0  0  0  0  0  0  0  0  0
    5.7308    2.6244    0.0000 O   0  0  0  0  0  0  0  0  0  0  0  0
    7.2308    2.6314    0.0000 C   0  0  0  0  0  0  0  0  0  0  0  0
   -6.2690    2.5679    0.0000 C   0  0  0  0  0  0  0  0  0  0  0  0
   -5.5129    1.2724    0.0000 O   0  0  0  0  0  0  0  0  0  0  0  0
   -4.0130    1.2795    0.0000 C   0  0  0  0  0  0  0  0  0  0  0  0
   -3.2569   -0.0160    0.0000 C   0  0  0  0  0  0  0  0  0  0  0  0
   -1.7569   -0.0090    0.0000 C   0  0  0  0  0  0  0  0  0  0  0  0
   -1.0130    1.2936    0.0000 C   0  0  0  0  0  0  0  0  0  0  0  0
   -1.7691    2.5891    0.0000 C   0  0  0  0  0  0  0  0  0  0  0  0
   -3.2691    2.5820    0.0000 C   0  0  0  0  0  0  0  0  0  0  0  0
   -1.0008   -1.3045    0.0000 O   0  0  0  0  0  0  0  0  0  0  0  0
   -1.7447   -2.6070    0.0000 C   0  0  0  0  0  0  0  0  0  0  0  0
    0.6480   -1.0369    0.0000 H   0  0  0  0  0  0  0  0  0  0  0  0
  1  2  1  0  0  0  0
  1  6  2  0  0  0  0
  2  3  2  0  0  0  0
  3  4  1  0  0  0  0
  4  5  2  0  0  0  0
  5  6  1  0  0  0  0
  5 11  1  0  0  0  0
  6  7  1  0  0  0  0
  7  8  2  0  0  0  0
  8  9  1  0  0  0  0
  9 10  2  0  0  0  0
  9 11  1  0  0  0  0
  1 12  1  0  0  0  0
 13 14  1  0  0  0  0
 14 15  1  0  0  0  0
 14 17  1  0  0  0  0
 14 18  1  0  0  0  0
 15 16  2  0  0  0  0
  2 16  1  0  0  0  0
  3 17  1  0  0  0  0
 19 20  1  0  0  0  0
  4 19  1  0  0  0  0
 21 22  1  0  0  0  0
 22 23  1  0  0  0  0
 23 24  1  0  0  0  0
 23 28  2  0  0  0  0
 24 25  2  0  0  0  0
 25 26  1  0  0  0  0
 25 29  1  0  0  0  0
 26 27  2  0  0  0  0
 27 28  1  0  0  0  0
 29 30  1  0  0  0  0
  8 26  1  0  0  0  0
  7 31  1  0  0  0  0
M  END
> <score_KierA2>
0.516748

$$$$
suggested molecule #338
 MOE2019            2D

 31 34  0  0  0  0  0  0  0  0999 V2000
    3.4992   -1.2833    0.0000 C   0  0  0  0  0  0  0  0  0  1  0  0
    4.9992   -1.2762    0.0000 C   0  0  0  0  0  0  0  0  0  2  0  0
    5.7430    0.0263    0.0000 C   0  0  0  0  0  0  0  0  0  3  0  0
    4.9869    1.3218    0.0000 C   0  0  0  0  0  0  0  0  0  4  0  0
    3.4870    1.3147    0.0000 C   0  0  0  0  0  0  0  0  0  5  0  0
    2.7431    0.0122    0.0000 C   0  0  0  0  0  0  0  0  0  6  0  0
    1.2431    0.0051    0.0000 C   0  0  0  0  0  0  0  0  0  7  0  0
    0.4870    1.3006    0.0000 C   0  0  0  0  0  0  0  0  0  8  0  0
    1.2309    2.6032    0.0000 C   0  0  0  0  0  0  0  0  0  9  0  0
    0.4748    3.8987    0.0000 O   0  0  0  0  0  0  0  0  0 10  0  0
    2.7309    2.6102    0.0000 O   0  0  0  0  0  0  0  0  0 11  0  0
    2.9041   -2.3253    0.0000 H   0  0  0  0  0  0  0  0  0  0  0  0
    9.3017   -2.0060    0.0000 C   0  0  0  0  0  0  0  0  0  0  0  0
    7.9991   -1.2621    0.0000 C   0  0  0  0  0  0  0  0  0  0  0  0
    7.2552   -2.5647    0.0000 C   0  0  0  0  0  0  0  0  0  0  0  0
    5.7553   -2.5717    0.0000 C   0  0  0  0  0  0  0  0  0  0  0  0
    7.2430    0.0334    0.0000 O   0  0  0  0  0  0  0  0  0  0  0  0
    9.2946   -0.5060    0.0000 C   0  0  0  0  0  0  0  0  0  0  0  0
    5.7308    2.6244    0.0000 O   0  0  0  0  0  0  0  0  0  0  0  0
    7.2308    2.6314    0.0000 C   0  0  0  0  0  0  0  0  0  0  0  0
   -6.2690    2.5679    0.0000 C   0  0  0  0  0  0  0  0  0  0  0  0
   -5.5129    1.2724    0.0000 O   0  0  0  0  0  0  0  0  0  0  0  0
   -4.0130    1.2795    0.0000 C   0  0  0  0  0  0  0  0  0  0  0  0
   -3.2569   -0.0160    0.0000 C   0  0  0  0  0  0  0  0  0  0  0  0
   -1.7569   -0.0090    0.0000 C   0  0  0  0  0  0  0  0  0  0  0  0
   -1.0130    1.2936    0.0000 C   0  0  0  0  0  0  0  0  0  0  0  0
   -1.7691    2.5891    0.0000 C   0  0  0  0  0  0  0  0  0  0  0  0
   -3.2691    2.5820    0.0000 C   0  0  0  0  0  0  0  0  0  0  0  0
   -1.0008   -1.3045    0.0000 O   0  0  0  0  0  0  0  0  0  0  0  0
   -1.7447   -2.6070    0.0000 C   0  0  0  0  0  0  0  0  0  0  0  0
    0.6480   -1.0369    0.0000 H   0  0  0  0  0  0  0  0  0  0  0  0
  1  2  1  0  0  0  0
  1  6  2  0  0  0  0
  2  3  2  0  0  0  0
  3  4  1  0  0  0  0
  4  5  2  0  0  0  0
  5  6  1  0  0  0  0
  5 11  1  0  0  0  0
  6  7  1  0  0  0  0
  7  8  2  0  0  0  0
  8  9  1  0  0  0  0
  9 10  2  0  0  0  0
  9 11  1  0  0  0  0
  1 12  1  0  0  0  0
 13 14  1  0  0  0  0
 14 15  1  0  0  0  0
 14 17  1  0  0  0  0
 14 18  1  0  0  0  0
 15 16  2  0  0  0  0
  2 16  1  0  0  0  0
  3 17  1  0  0  0  0
 19 20  1  0  0  0  0
  4 19  1  0  0  0  0
 21 22  1  0  0  0  0
 22 23  1  0  0  0  0
 23 24  1  0  0  0  0
 23 28  2  0  0  0  0
 24 25  2  0  0  0  0
 25 26  1  0  0  0  0
 25 29  1  0  0  0  0
 26 27  2  0  0  0  0
 27 28  1  0  0  0  0
 29 30  1  0  0  0  0
  8 26  1  0  0  0  0
  7 31  1  0  0  0  0
M  END
> <score_KierFlex>
0.516319

$$$$
suggested molecule #339
 MOE2019            2D

 27 30  0  0  0  0  0  0  0  0999 V2000
    3.4992   -1.2833    0.0000 C   0  0  0  0  0  0  0  0  0  1  0  0
    4.9992   -1.2762    0.0000 C   0  0  0  0  0  0  0  0  0  2  0  0
    5.7430    0.0263    0.0000 C   0  0  0  0  0  0  0  0  0  3  0  0
    4.9869    1.3218    0.0000 C   0  0  0  0  0  0  0  0  0  4  0  0
    3.4870    1.3147    0.0000 C   0  0  0  0  0  0  0  0  0  5  0  0
    2.7431    0.0122    0.0000 C   0  0  0  0  0  0  0  0  0  6  0  0
    1.2431    0.0051    0.0000 C   0  0  0  0  0  0  0  0  0  7  0  0
    0.4870    1.3006    0.0000 C   0  0  0  0  0  0  0  0  0  8  0  0
    1.2309    2.6032    0.0000 C   0  0  0  0  0  0  0  0  0  9  0  0
    0.4748    3.8987    0.0000 O   0  0  0  0  0  0  0  0  0 10  0  0
    2.7309    2.6102    0.0000 O   0  0  0  0  0  0  0  0  0 11  0  0
    2.9041   -2.3253    0.0000 H   0  0  0  0  0  0  0  0  0  0  0  0
    9.2946   -0.5060    0.0000 C   0  0  0  0  0  0  0  0  0  0  0  0
    7.9991   -1.2621    0.0000 C   0  0  0  0  0  0  0  0  0  0  0  0
    7.2552   -2.5647    0.0000 C   0  0  0  0  0  0  0  0  0  0  0  0
    5.7553   -2.5717    0.0000 C   0  0  0  0  0  0  0  0  0  0  0  0
    7.2430    0.0334    0.0000 O   0  0  0  0  0  0  0  0  0  0  0  0
    9.3017   -2.0060    0.0000 C   0  0  0  0  0  0  0  0  0  0  0  0
    5.7308    2.6244    0.0000 O   0  0  0  0  0  0  0  0  0  0  0  0
    4.9747    3.9198    0.0000 C   0  0  0  0  0  0  0  0  0  0  0  0
   -4.0130    1.2795    0.0000 C   0  0  0  0  0  0  0  0  0  0  0  0
   -3.2569   -0.0160    0.0000 C   0  0  0  0  0  0  0  0  0  0  0  0
   -1.7569   -0.0090    0.0000 C   0  0  0  0  0  0  0  0  0  0  0  0
   -1.0130    1.2936    0.0000 C   0  0  0  0  0  0  0  0  0  0  0  0
   -1.7691    2.5891    0.0000 C   0  0  0  0  0  0  0  0  0  0  0  0
   -3.2691    2.5820    0.0000 C   0  0  0  0  0  0  0  0  0  0  0  0
    0.6480   -1.0369    0.0000 H   0  0  0  0  0  0  0  0  0  0  0  0
  1  2  1  0  0  0  0
  1  6  2  0  0  0  0
  2  3  2  0  0  0  0
  3  4  1  0  0  0  0
  4  5  2  0  0  0  0
  5  6  1  0  0  0  0
  5 11  1  0  0  0  0
  6  7  1  0  0  0  0
  7  8  2  0  0  0  0
  8  9  1  0  0  0  0
  9 10  2  0  0  0  0
  9 11  1  0  0  0  0
  1 12  1  0  0  0  0
 13 14  1  0  0  0  0
 14 15  1  0  0  0  0
 14 17  1  0  0  0  0
 14 18  1  0  0  0  0
 15 16  2  0  0  0  0
  2 16  1  0  0  0  0
  3 17  1  0  0  0  0
 19 20  1  0  0  0  0
  4 19  1  0  0  0  0
 21 22  1  0  0  0  0
 21 26  2  0  0  0  0
 22 23  2  0  0  0  0
 23 24  1  0  0  0  0
 24 25  2  0  0  0  0
 25 26  1  0  0  0  0
  8 24  1  0  0  0  0
  7 27  1  0  0  0  0
M  END
> <score_Kier1>
0.517757

$$$$
suggested molecule #340
 MOE2019            2D

 27 30  0  0  0  0  0  0  0  0999 V2000
    3.4992   -1.2833    0.0000 C   0  0  0  0  0  0  0  0  0  1  0  0
    4.9992   -1.2762    0.0000 C   0  0  0  0  0  0  0  0  0  2  0  0
    5.7430    0.0263    0.0000 C   0  0  0  0  0  0  0  0  0  3  0  0
    4.9869    1.3218    0.0000 C   0  0  0  0  0  0  0  0  0  4  0  0
    3.4870    1.3147    0.0000 C   0  0  0  0  0  0  0  0  0  5  0  0
    2.7431    0.0122    0.0000 C   0  0  0  0  0  0  0  0  0  6  0  0
    1.2431    0.0051    0.0000 C   0  0  0  0  0  0  0  0  0  7  0  0
    0.4870    1.3006    0.0000 C   0  0  0  0  0  0  0  0  0  8  0  0
    1.2309    2.6032    0.0000 C   0  0  0  0  0  0  0  0  0  9  0  0
    0.4748    3.8987    0.0000 O   0  0  0  0  0  0  0  0  0 10  0  0
    2.7309    2.6102    0.0000 O   0  0  0  0  0  0  0  0  0 11  0  0
    2.9041   -2.3253    0.0000 H   0  0  0  0  0  0  0  0  0  0  0  0
    9.2946   -0.5060    0.0000 C   0  0  0  0  0  0  0  0  0  0  0  0
    7.9991   -1.2621    0.0000 C   0  0  0  0  0  0  0  0  0  0  0  0
    7.2552   -2.5647    0.0000 C   0  0  0  0  0  0  0  0  0  0  0  0
    5.7553   -2.5717    0.0000 C   0  0  0  0  0  0  0  0  0  0  0  0
    7.2430    0.0334    0.0000 O   0  0  0  0  0  0  0  0  0  0  0  0
    9.3017   -2.0060    0.0000 C   0  0  0  0  0  0  0  0  0  0  0  0
    5.7308    2.6244    0.0000 O   0  0  0  0  0  0  0  0  0  0  0  0
    4.9747    3.9198    0.0000 C   0  0  0  0  0  0  0  0  0  0  0  0
   -4.0130    1.2795    0.0000 C   0  0  0  0  0  0  0  0  0  0  0  0
   -3.2569   -0.0160    0.0000 C   0  0  0  0  0  0  0  0  0  0  0  0
   -1.7569   -0.0090    0.0000 C   0  0  0  0  0  0  0  0  0  0  0  0
   -1.0130    1.2936    0.0000 C   0  0  0  0  0  0  0  0  0  0  0  0
   -1.7691    2.5891    0.0000 C   0  0  0  0  0  0  0  0  0  0  0  0
   -3.2691    2.5820    0.0000 C   0  0  0  0  0  0  0  0  0  0  0  0
    0.6480   -1.0369    0.0000 H   0  0  0  0  0  0  0  0  0  0  0  0
  1  2  1  0  0  0  0
  1  6  2  0  0  0  0
  2  3  2  0  0  0  0
  3  4  1  0  0  0  0
  4  5  2  0  0  0  0
  5  6  1  0  0  0  0
  5 11  1  0  0  0  0
  6  7  1  0  0  0  0
  7  8  2  0  0  0  0
  8  9  1  0  0  0  0
  9 10  2  0  0  0  0
  9 11  1  0  0  0  0
  1 12  1  0  0  0  0
 13 14  1  0  0  0  0
 14 15  1  0  0  0  0
 14 17  1  0  0  0  0
 14 18  1  0  0  0  0
 15 16  2  0  0  0  0
  2 16  1  0  0  0  0
  3 17  1  0  0  0  0
 19 20  1  0  0  0  0
  4 19  1  0  0  0  0
 21 22  1  0  0  0  0
 21 26  2  0  0  0  0
 22 23  2  0  0  0  0
 23 24  1  0  0  0  0
 24 25  2  0  0  0  0
 25 26  1  0  0  0  0
  8 24  1  0  0  0  0
  7 27  1  0  0  0  0
M  END
> <score_Kier2>
0.51649

$$$$
suggested molecule #341
 MOE2019            2D

 27 30  0  0  0  0  0  0  0  0999 V2000
    3.4992   -1.2833    0.0000 C   0  0  0  0  0  0  0  0  0  1  0  0
    4.9992   -1.2762    0.0000 C   0  0  0  0  0  0  0  0  0  2  0  0
    5.7430    0.0263    0.0000 C   0  0  0  0  0  0  0  0  0  3  0  0
    4.9869    1.3218    0.0000 C   0  0  0  0  0  0  0  0  0  4  0  0
    3.4870    1.3147    0.0000 C   0  0  0  0  0  0  0  0  0  5  0  0
    2.7431    0.0122    0.0000 C   0  0  0  0  0  0  0  0  0  6  0  0
    1.2431    0.0051    0.0000 C   0  0  0  0  0  0  0  0  0  7  0  0
    0.4870    1.3006    0.0000 C   0  0  0  0  0  0  0  0  0  8  0  0
    1.2309    2.6032    0.0000 C   0  0  0  0  0  0  0  0  0  9  0  0
    0.4748    3.8987    0.0000 O   0  0  0  0  0  0  0  0  0 10  0  0
    2.7309    2.6102    0.0000 O   0  0  0  0  0  0  0  0  0 11  0  0
    2.9041   -2.3253    0.0000 H   0  0  0  0  0  0  0  0  0  0  0  0
    9.2946   -0.5060    0.0000 C   0  0  0  0  0  0  0  0  0  0  0  0
    7.9991   -1.2621    0.0000 C   0  0  0  0  0  0  0  0  0  0  0  0
    7.2552   -2.5647    0.0000 C   0  0  0  0  0  0  0  0  0  0  0  0
    5.7553   -2.5717    0.0000 C   0  0  0  0  0  0  0  0  0  0  0  0
    7.2430    0.0334    0.0000 O   0  0  0  0  0  0  0  0  0  0  0  0
    9.3017   -2.0060    0.0000 C   0  0  0  0  0  0  0  0  0  0  0  0
    5.7308    2.6244    0.0000 O   0  0  0  0  0  0  0  0  0  0  0  0
    4.9747    3.9198    0.0000 C   0  0  0  0  0  0  0  0  0  0  0  0
   -4.0130    1.2795    0.0000 C   0  0  0  0  0  0  0  0  0  0  0  0
   -3.2569   -0.0160    0.0000 C   0  0  0  0  0  0  0  0  0  0  0  0
   -1.7569   -0.0090    0.0000 C   0  0  0  0  0  0  0  0  0  0  0  0
   -1.0130    1.2936    0.0000 C   0  0  0  0  0  0  0  0  0  0  0  0
   -1.7691    2.5891    0.0000 C   0  0  0  0  0  0  0  0  0  0  0  0
   -3.2691    2.5820    0.0000 C   0  0  0  0  0  0  0  0  0  0  0  0
    0.6480   -1.0369    0.0000 H   0  0  0  0  0  0  0  0  0  0  0  0
  1  2  1  0  0  0  0
  1  6  2  0  0  0  0
  2  3  2  0  0  0  0
  3  4  1  0  0  0  0
  4  5  2  0  0  0  0
  5  6  1  0  0  0  0
  5 11  1  0  0  0  0
  6  7  1  0  0  0  0
  7  8  2  0  0  0  0
  8  9  1  0  0  0  0
  9 10  2  0  0  0  0
  9 11  1  0  0  0  0
  1 12  1  0  0  0  0
 13 14  1  0  0  0  0
 14 15  1  0  0  0  0
 14 17  1  0  0  0  0
 14 18  1  0  0  0  0
 15 16  2  0  0  0  0
  2 16  1  0  0  0  0
  3 17  1  0  0  0  0
 19 20  1  0  0  0  0
  4 19  1  0  0  0  0
 21 22  1  0  0  0  0
 21 26  2  0  0  0  0
 22 23  2  0  0  0  0
 23 24  1  0  0  0  0
 24 25  2  0  0  0  0
 25 26  1  0  0  0  0
  8 24  1  0  0  0  0
  7 27  1  0  0  0  0
M  END
> <score_Kier3>
0.511514

$$$$
suggested molecule #342
 MOE2019            2D

 27 30  0  0  0  0  0  0  0  0999 V2000
    3.4992   -1.2833    0.0000 C   0  0  0  0  0  0  0  0  0  1  0  0
    4.9992   -1.2762    0.0000 C   0  0  0  0  0  0  0  0  0  2  0  0
    5.7430    0.0263    0.0000 C   0  0  0  0  0  0  0  0  0  3  0  0
    4.9869    1.3218    0.0000 C   0  0  0  0  0  0  0  0  0  4  0  0
    3.4870    1.3147    0.0000 C   0  0  0  0  0  0  0  0  0  5  0  0
    2.7431    0.0122    0.0000 C   0  0  0  0  0  0  0  0  0  6  0  0
    1.2431    0.0051    0.0000 C   0  0  0  0  0  0  0  0  0  7  0  0
    0.4870    1.3006    0.0000 C   0  0  0  0  0  0  0  0  0  8  0  0
    1.2309    2.6032    0.0000 C   0  0  0  0  0  0  0  0  0  9  0  0
    0.4748    3.8987    0.0000 O   0  0  0  0  0  0  0  0  0 10  0  0
    2.7309    2.6102    0.0000 O   0  0  0  0  0  0  0  0  0 11  0  0
    2.9041   -2.3253    0.0000 H   0  0  0  0  0  0  0  0  0  0  0  0
    9.2946   -0.5060    0.0000 C   0  0  0  0  0  0  0  0  0  0  0  0
    7.9991   -1.2621    0.0000 C   0  0  0  0  0  0  0  0  0  0  0  0
    7.2552   -2.5647    0.0000 C   0  0  0  0  0  0  0  0  0  0  0  0
    5.7553   -2.5717    0.0000 C   0  0  0  0  0  0  0  0  0  0  0  0
    7.2430    0.0334    0.0000 O   0  0  0  0  0  0  0  0  0  0  0  0
    9.3017   -2.0060    0.0000 C   0  0  0  0  0  0  0  0  0  0  0  0
    5.7308    2.6244    0.0000 O   0  0  0  0  0  0  0  0  0  0  0  0
    4.9747    3.9198    0.0000 C   0  0  0  0  0  0  0  0  0  0  0  0
   -4.0130    1.2795    0.0000 C   0  0  0  0  0  0  0  0  0  0  0  0
   -3.2569   -0.0160    0.0000 C   0  0  0  0  0  0  0  0  0  0  0  0
   -1.7569   -0.0090    0.0000 C   0  0  0  0  0  0  0  0  0  0  0  0
   -1.0130    1.2936    0.0000 C   0  0  0  0  0  0  0  0  0  0  0  0
   -1.7691    2.5891    0.0000 C   0  0  0  0  0  0  0  0  0  0  0  0
   -3.2691    2.5820    0.0000 C   0  0  0  0  0  0  0  0  0  0  0  0
    0.6480   -1.0369    0.0000 H   0  0  0  0  0  0  0  0  0  0  0  0
  1  2  1  0  0  0  0
  1  6  2  0  0  0  0
  2  3  2  0  0  0  0
  3  4  1  0  0  0  0
  4  5  2  0  0  0  0
  5  6  1  0  0  0  0
  5 11  1  0  0  0  0
  6  7  1  0  0  0  0
  7  8  2  0  0  0  0
  8  9  1  0  0  0  0
  9 10  2  0  0  0  0
  9 11  1  0  0  0  0
  1 12  1  0  0  0  0
 13 14  1  0  0  0  0
 14 15  1  0  0  0  0
 14 17  1  0  0  0  0
 14 18  1  0  0  0  0
 15 16  2  0  0  0  0
  2 16  1  0  0  0  0
  3 17  1  0  0  0  0
 19 20  1  0  0  0  0
  4 19  1  0  0  0  0
 21 22  1  0  0  0  0
 21 26  2  0  0  0  0
 22 23  2  0  0  0  0
 23 24  1  0  0  0  0
 24 25  2  0  0  0  0
 25 26  1  0  0  0  0
  8 24  1  0  0  0  0
  7 27  1  0  0  0  0
M  END
> <score_KierA1>
0.517688

$$$$
suggested molecule #343
 MOE2019            2D

 27 30  0  0  0  0  0  0  0  0999 V2000
    3.4992   -1.2833    0.0000 C   0  0  0  0  0  0  0  0  0  1  0  0
    4.9992   -1.2762    0.0000 C   0  0  0  0  0  0  0  0  0  2  0  0
    5.7430    0.0263    0.0000 C   0  0  0  0  0  0  0  0  0  3  0  0
    4.9869    1.3218    0.0000 C   0  0  0  0  0  0  0  0  0  4  0  0
    3.4870    1.3147    0.0000 C   0  0  0  0  0  0  0  0  0  5  0  0
    2.7431    0.0122    0.0000 C   0  0  0  0  0  0  0  0  0  6  0  0
    1.2431    0.0051    0.0000 C   0  0  0  0  0  0  0  0  0  7  0  0
    0.4870    1.3006    0.0000 C   0  0  0  0  0  0  0  0  0  8  0  0
    1.2309    2.6032    0.0000 C   0  0  0  0  0  0  0  0  0  9  0  0
    0.4748    3.8987    0.0000 O   0  0  0  0  0  0  0  0  0 10  0  0
    2.7309    2.6102    0.0000 O   0  0  0  0  0  0  0  0  0 11  0  0
    2.9041   -2.3253    0.0000 H   0  0  0  0  0  0  0  0  0  0  0  0
    9.2946   -0.5060    0.0000 C   0  0  0  0  0  0  0  0  0  0  0  0
    7.9991   -1.2621    0.0000 C   0  0  0  0  0  0  0  0  0  0  0  0
    7.2552   -2.5647    0.0000 C   0  0  0  0  0  0  0  0  0  0  0  0
    5.7553   -2.5717    0.0000 C   0  0  0  0  0  0  0  0  0  0  0  0
    7.2430    0.0334    0.0000 O   0  0  0  0  0  0  0  0  0  0  0  0
    9.3017   -2.0060    0.0000 C   0  0  0  0  0  0  0  0  0  0  0  0
    5.7308    2.6244    0.0000 O   0  0  0  0  0  0  0  0  0  0  0  0
    4.9747    3.9198    0.0000 C   0  0  0  0  0  0  0  0  0  0  0  0
   -4.0130    1.2795    0.0000 C   0  0  0  0  0  0  0  0  0  0  0  0
   -3.2569   -0.0160    0.0000 C   0  0  0  0  0  0  0  0  0  0  0  0
   -1.7569   -0.0090    0.0000 C   0  0  0  0  0  0  0  0  0  0  0  0
   -1.0130    1.2936    0.0000 C   0  0  0  0  0  0  0  0  0  0  0  0
   -1.7691    2.5891    0.0000 C   0  0  0  0  0  0  0  0  0  0  0  0
   -3.2691    2.5820    0.0000 C   0  0  0  0  0  0  0  0  0  0  0  0
    0.6480   -1.0369    0.0000 H   0  0  0  0  0  0  0  0  0  0  0  0
  1  2  1  0  0  0  0
  1  6  2  0  0  0  0
  2  3  2  0  0  0  0
  3  4  1  0  0  0  0
  4  5  2  0  0  0  0
  5  6  1  0  0  0  0
  5 11  1  0  0  0  0
  6  7  1  0  0  0  0
  7  8  2  0  0  0  0
  8  9  1  0  0  0  0
  9 10  2  0  0  0  0
  9 11  1  0  0  0  0
  1 12  1  0  0  0  0
 13 14  1  0  0  0  0
 14 15  1  0  0  0  0
 14 17  1  0  0  0  0
 14 18  1  0  0  0  0
 15 16  2  0  0  0  0
  2 16  1  0  0  0  0
  3 17  1  0  0  0  0
 19 20  1  0  0  0  0
  4 19  1  0  0  0  0
 21 22  1  0  0  0  0
 21 26  2  0  0  0  0
 22 23  2  0  0  0  0
 23 24  1  0  0  0  0
 24 25  2  0  0  0  0
 25 26  1  0  0  0  0
  8 24  1  0  0  0  0
  7 27  1  0  0  0  0
M  END
> <score_KierA2>
0.516776

$$$$
suggested molecule #344
 MOE2019            2D

 27 30  0  0  0  0  0  0  0  0999 V2000
    3.4992   -1.2833    0.0000 C   0  0  0  0  0  0  0  0  0  1  0  0
    4.9992   -1.2762    0.0000 C   0  0  0  0  0  0  0  0  0  2  0  0
    5.7430    0.0263    0.0000 C   0  0  0  0  0  0  0  0  0  3  0  0
    4.9869    1.3218    0.0000 C   0  0  0  0  0  0  0  0  0  4  0  0
    3.4870    1.3147    0.0000 C   0  0  0  0  0  0  0  0  0  5  0  0
    2.7431    0.0122    0.0000 C   0  0  0  0  0  0  0  0  0  6  0  0
    1.2431    0.0051    0.0000 C   0  0  0  0  0  0  0  0  0  7  0  0
    0.4870    1.3006    0.0000 C   0  0  0  0  0  0  0  0  0  8  0  0
    1.2309    2.6032    0.0000 C   0  0  0  0  0  0  0  0  0  9  0  0
    0.4748    3.8987    0.0000 O   0  0  0  0  0  0  0  0  0 10  0  0
    2.7309    2.6102    0.0000 O   0  0  0  0  0  0  0  0  0 11  0  0
    2.9041   -2.3253    0.0000 H   0  0  0  0  0  0  0  0  0  0  0  0
    9.2946   -0.5060    0.0000 C   0  0  0  0  0  0  0  0  0  0  0  0
    7.9991   -1.2621    0.0000 C   0  0  0  0  0  0  0  0  0  0  0  0
    7.2552   -2.5647    0.0000 C   0  0  0  0  0  0  0  0  0  0  0  0
    5.7553   -2.5717    0.0000 C   0  0  0  0  0  0  0  0  0  0  0  0
    7.2430    0.0334    0.0000 O   0  0  0  0  0  0  0  0  0  0  0  0
    9.3017   -2.0060    0.0000 C   0  0  0  0  0  0  0  0  0  0  0  0
    5.7308    2.6244    0.0000 O   0  0  0  0  0  0  0  0  0  0  0  0
    4.9747    3.9198    0.0000 C   0  0  0  0  0  0  0  0  0  0  0  0
   -4.0130    1.2795    0.0000 C   0  0  0  0  0  0  0  0  0  0  0  0
   -3.2569   -0.0160    0.0000 C   0  0  0  0  0  0  0  0  0  0  0  0
   -1.7569   -0.0090    0.0000 C   0  0  0  0  0  0  0  0  0  0  0  0
   -1.0130    1.2936    0.0000 C   0  0  0  0  0  0  0  0  0  0  0  0
   -1.7691    2.5891    0.0000 C   0  0  0  0  0  0  0  0  0  0  0  0
   -3.2691    2.5820    0.0000 C   0  0  0  0  0  0  0  0  0  0  0  0
    0.6480   -1.0369    0.0000 H   0  0  0  0  0  0  0  0  0  0  0  0
  1  2  1  0  0  0  0
  1  6  2  0  0  0  0
  2  3  2  0  0  0  0
  3  4  1  0  0  0  0
  4  5  2  0  0  0  0
  5  6  1  0  0  0  0
  5 11  1  0  0  0  0
  6  7  1  0  0  0  0
  7  8  2  0  0  0  0
  8  9  1  0  0  0  0
  9 10  2  0  0  0  0
  9 11  1  0  0  0  0
  1 12  1  0  0  0  0
 13 14  1  0  0  0  0
 14 15  1  0  0  0  0
 14 17  1  0  0  0  0
 14 18  1  0  0  0  0
 15 16  2  0  0  0  0
  2 16  1  0  0  0  0
  3 17  1  0  0  0  0
 19 20  1  0  0  0  0
  4 19  1  0  0  0  0
 21 22  1  0  0  0  0
 21 26  2  0  0  0  0
 22 23  2  0  0  0  0
 23 24  1  0  0  0  0
 24 25  2  0  0  0  0
 25 26  1  0  0  0  0
  8 24  1  0  0  0  0
  7 27  1  0  0  0  0
M  END
> <score_KierA3>
0.512128

$$$$
suggested molecule #345
 MOE2019            2D

 27 30  0  0  0  0  0  0  0  0999 V2000
    3.4992   -1.2833    0.0000 C   0  0  0  0  0  0  0  0  0  1  0  0
    4.9992   -1.2762    0.0000 C   0  0  0  0  0  0  0  0  0  2  0  0
    5.7430    0.0263    0.0000 C   0  0  0  0  0  0  0  0  0  3  0  0
    4.9869    1.3218    0.0000 C   0  0  0  0  0  0  0  0  0  4  0  0
    3.4870    1.3147    0.0000 C   0  0  0  0  0  0  0  0  0  5  0  0
    2.7431    0.0122    0.0000 C   0  0  0  0  0  0  0  0  0  6  0  0
    1.2431    0.0051    0.0000 C   0  0  0  0  0  0  0  0  0  7  0  0
    0.4870    1.3006    0.0000 C   0  0  0  0  0  0  0  0  0  8  0  0
    1.2309    2.6032    0.0000 C   0  0  0  0  0  0  0  0  0  9  0  0
    0.4748    3.8987    0.0000 O   0  0  0  0  0  0  0  0  0 10  0  0
    2.7309    2.6102    0.0000 O   0  0  0  0  0  0  0  0  0 11  0  0
    2.9041   -2.3253    0.0000 H   0  0  0  0  0  0  0  0  0  0  0  0
    9.2946   -0.5060    0.0000 C   0  0  0  0  0  0  0  0  0  0  0  0
    7.9991   -1.2621    0.0000 C   0  0  0  0  0  0  0  0  0  0  0  0
    7.2552   -2.5647    0.0000 C   0  0  0  0  0  0  0  0  0  0  0  0
    5.7553   -2.5717    0.0000 C   0  0  0  0  0  0  0  0  0  0  0  0
    7.2430    0.0334    0.0000 O   0  0  0  0  0  0  0  0  0  0  0  0
    9.3017   -2.0060    0.0000 C   0  0  0  0  0  0  0  0  0  0  0  0
    5.7308    2.6244    0.0000 O   0  0  0  0  0  0  0  0  0  0  0  0
    4.9747    3.9198    0.0000 C   0  0  0  0  0  0  0  0  0  0  0  0
   -4.0130    1.2795    0.0000 C   0  0  0  0  0  0  0  0  0  0  0  0
   -3.2569   -0.0160    0.0000 C   0  0  0  0  0  0  0  0  0  0  0  0
   -1.7569   -0.0090    0.0000 C   0  0  0  0  0  0  0  0  0  0  0  0
   -1.0130    1.2936    0.0000 C   0  0  0  0  0  0  0  0  0  0  0  0
   -1.7691    2.5891    0.0000 C   0  0  0  0  0  0  0  0  0  0  0  0
   -3.2691    2.5820    0.0000 C   0  0  0  0  0  0  0  0  0  0  0  0
    0.6480   -1.0369    0.0000 H   0  0  0  0  0  0  0  0  0  0  0  0
  1  2  1  0  0  0  0
  1  6  2  0  0  0  0
  2  3  2  0  0  0  0
  3  4  1  0  0  0  0
  4  5  2  0  0  0  0
  5  6  1  0  0  0  0
  5 11  1  0  0  0  0
  6  7  1  0  0  0  0
  7  8  2  0  0  0  0
  8  9  1  0  0  0  0
  9 10  2  0  0  0  0
  9 11  1  0  0  0  0
  1 12  1  0  0  0  0
 13 14  1  0  0  0  0
 14 15  1  0  0  0  0
 14 17  1  0  0  0  0
 14 18  1  0  0  0  0
 15 16  2  0  0  0  0
  2 16  1  0  0  0  0
  3 17  1  0  0  0  0
 19 20  1  0  0  0  0
  4 19  1  0  0  0  0
 21 22  1  0  0  0  0
 21 26  2  0  0  0  0
 22 23  2  0  0  0  0
 23 24  1  0  0  0  0
 24 25  2  0  0  0  0
 25 26  1  0  0  0  0
  8 24  1  0  0  0  0
  7 27  1  0  0  0  0
M  END
> <score_KierFlex>
0.51636

$$$$
suggested molecule #346
 MOE2019            2D

 33 36  0  0  0  0  0  0  0  0999 V2000
    3.4992   -1.2833    0.0000 C   0  0  0  0  0  0  0  0  0  1  0  0
    4.9992   -1.2762    0.0000 C   0  0  0  0  0  0  0  0  0  2  0  0
    5.7430    0.0263    0.0000 C   0  0  0  0  0  0  0  0  0  3  0  0
    4.9869    1.3218    0.0000 C   0  0  0  0  0  0  0  0  0  4  0  0
    3.4870    1.3147    0.0000 C   0  0  0  0  0  0  0  0  0  5  0  0
    2.7431    0.0122    0.0000 C   0  0  0  0  0  0  0  0  0  6  0  0
    1.2431    0.0051    0.0000 C   0  0  0  0  0  0  0  0  0  7  0  0
    0.4870    1.3006    0.0000 C   0  0  0  0  0  0  0  0  0  8  0  0
    1.2309    2.6032    0.0000 C   0  0  0  0  0  0  0  0  0  9  0  0
    0.4748    3.8987    0.0000 O   0  0  0  0  0  0  0  0  0 10  0  0
    2.7309    2.6102    0.0000 O   0  0  0  0  0  0  0  0  0 11  0  0
    2.9041   -2.3253    0.0000 H   0  0  0  0  0  0  0  0  0  0  0  0
    9.2946   -0.5060    0.0000 C   0  0  0  0  0  0  0  0  0  0  0  0
    7.9991   -1.2621    0.0000 C   0  0  0  0  0  0  0  0  0  0  0  0
    7.2552   -2.5647    0.0000 C   0  0  0  0  0  0  0  0  0  0  0  0
    5.7553   -2.5717    0.0000 C   0  0  0  0  0  0  0  0  0  0  0  0
    7.2430    0.0334    0.0000 O   0  0  0  0  0  0  0  0  0  0  0  0
    9.3017   -2.0060    0.0000 C   0  0  0  0  0  0  0  0  0  0  0  0
    5.7308    2.6244    0.0000 O   0  0  0  0  0  0  0  0  0  0  0  0
    7.2308    2.6314    0.0000 C   0  0  0  0  0  0  0  0  0  0  0  0
   -3.2446   -2.6141    0.0000 C   0  0  0  0  0  0  0  0  0  0  0  0
   -4.0007   -1.3186    0.0000 O   0  0  0  0  0  0  0  0  0  0  0  0
   -3.2569   -0.0160    0.0000 C   0  0  0  0  0  0  0  0  0  0  0  0
   -1.7569   -0.0090    0.0000 C   0  0  0  0  0  0  0  0  0  0  0  0
   -1.0130    1.2936    0.0000 C   0  0  0  0  0  0  0  0  0  0  0  0
   -1.7691    2.5891    0.0000 C   0  0  0  0  0  0  0  0  0  0  0  0
   -3.2691    2.5820    0.0000 C   0  0  0  0  0  0  0  0  0  0  0  0
   -4.0130    1.2795    0.0000 C   0  0  0  0  0  0  0  0  0  0  0  0
   -5.5129    1.2724    0.0000 O   0  0  0  0  0  0  0  0  0  0  0  0
   -6.2568   -0.0301    0.0000 C   0  0  0  0  0  0  0  0  0  0  0  0
   -4.0252    3.8775    0.0000 O   0  0  0  0  0  0  0  0  0  0  0  0
   -3.2813    5.1801    0.0000 C   0  0  0  0  0  0  0  0  0  0  0  0
    0.6480   -1.0369    0.0000 H   0  0  0  0  0  0  0  0  0  0  0  0
  1  2  1  0  0  0  0
  1  6  2  0  0  0  0
  2  3  2  0  0  0  0
  3  4  1  0  0  0  0
  4  5  2  0  0  0  0
  5  6  1  0  0  0  0
  5 11  1  0  0  0  0
  6  7  1  0  0  0  0
  7  8  2  0  0  0  0
  8  9  1  0  0  0  0
  9 10  2  0  0  0  0
  9 11  1  0  0  0  0
  1 12  1  0  0  0  0
 13 14  1  0  0  0  0
 14 15  1  0  0  0  0
 14 17  1  0  0  0  0
 14 18  1  0  0  0  0
 15 16  2  0  0  0  0
  2 16  1  0  0  0  0
  3 17  1  0  0  0  0
 19 20  1  0  0  0  0
  4 19  1  0  0  0  0
 21 22  1  0  0  0  0
 22 23  1  0  0  0  0
 23 24  2  0  0  0  0
 23 28  1  0  0  0  0
 24 25  1  0  0  0  0
 25 26  2  0  0  0  0
 26 27  1  0  0  0  0
 27 28  2  0  0  0  0
 27 31  1  0  0  0  0
 28 29  1  0  0  0  0
 29 30  1  0  0  0  0
 31 32  1  0  0  0  0
  8 25  1  0  0  0  0
  7 33  1  0  0  0  0
M  END
> <score_Kier1>
0.517691

$$$$
suggested molecule #347
 MOE2019            2D

 33 36  0  0  0  0  0  0  0  0999 V2000
    3.4992   -1.2833    0.0000 C   0  0  0  0  0  0  0  0  0  1  0  0
    4.9992   -1.2762    0.0000 C   0  0  0  0  0  0  0  0  0  2  0  0
    5.7430    0.0263    0.0000 C   0  0  0  0  0  0  0  0  0  3  0  0
    4.9869    1.3218    0.0000 C   0  0  0  0  0  0  0  0  0  4  0  0
    3.4870    1.3147    0.0000 C   0  0  0  0  0  0  0  0  0  5  0  0
    2.7431    0.0122    0.0000 C   0  0  0  0  0  0  0  0  0  6  0  0
    1.2431    0.0051    0.0000 C   0  0  0  0  0  0  0  0  0  7  0  0
    0.4870    1.3006    0.0000 C   0  0  0  0  0  0  0  0  0  8  0  0
    1.2309    2.6032    0.0000 C   0  0  0  0  0  0  0  0  0  9  0  0
    0.4748    3.8987    0.0000 O   0  0  0  0  0  0  0  0  0 10  0  0
    2.7309    2.6102    0.0000 O   0  0  0  0  0  0  0  0  0 11  0  0
    2.9041   -2.3253    0.0000 H   0  0  0  0  0  0  0  0  0  0  0  0
    9.2946   -0.5060    0.0000 C   0  0  0  0  0  0  0  0  0  0  0  0
    7.9991   -1.2621    0.0000 C   0  0  0  0  0  0  0  0  0  0  0  0
    7.2552   -2.5647    0.0000 C   0  0  0  0  0  0  0  0  0  0  0  0
    5.7553   -2.5717    0.0000 C   0  0  0  0  0  0  0  0  0  0  0  0
    7.2430    0.0334    0.0000 O   0  0  0  0  0  0  0  0  0  0  0  0
    9.3017   -2.0060    0.0000 C   0  0  0  0  0  0  0  0  0  0  0  0
    5.7308    2.6244    0.0000 O   0  0  0  0  0  0  0  0  0  0  0  0
    7.2308    2.6314    0.0000 C   0  0  0  0  0  0  0  0  0  0  0  0
   -3.2446   -2.6141    0.0000 C   0  0  0  0  0  0  0  0  0  0  0  0
   -4.0007   -1.3186    0.0000 O   0  0  0  0  0  0  0  0  0  0  0  0
   -3.2569   -0.0160    0.0000 C   0  0  0  0  0  0  0  0  0  0  0  0
   -1.7569   -0.0090    0.0000 C   0  0  0  0  0  0  0  0  0  0  0  0
   -1.0130    1.2936    0.0000 C   0  0  0  0  0  0  0  0  0  0  0  0
   -1.7691    2.5891    0.0000 C   0  0  0  0  0  0  0  0  0  0  0  0
   -3.2691    2.5820    0.0000 C   0  0  0  0  0  0  0  0  0  0  0  0
   -4.0130    1.2795    0.0000 C   0  0  0  0  0  0  0  0  0  0  0  0
   -5.5129    1.2724    0.0000 O   0  0  0  0  0  0  0  0  0  0  0  0
   -6.2568   -0.0301    0.0000 C   0  0  0  0  0  0  0  0  0  0  0  0
   -4.0252    3.8775    0.0000 O   0  0  0  0  0  0  0  0  0  0  0  0
   -3.2813    5.1801    0.0000 C   0  0  0  0  0  0  0  0  0  0  0  0
    0.6480   -1.0369    0.0000 H   0  0  0  0  0  0  0  0  0  0  0  0
  1  2  1  0  0  0  0
  1  6  2  0  0  0  0
  2  3  2  0  0  0  0
  3  4  1  0  0  0  0
  4  5  2  0  0  0  0
  5  6  1  0  0  0  0
  5 11  1  0  0  0  0
  6  7  1  0  0  0  0
  7  8  2  0  0  0  0
  8  9  1  0  0  0  0
  9 10  2  0  0  0  0
  9 11  1  0  0  0  0
  1 12  1  0  0  0  0
 13 14  1  0  0  0  0
 14 15  1  0  0  0  0
 14 17  1  0  0  0  0
 14 18  1  0  0  0  0
 15 16  2  0  0  0  0
  2 16  1  0  0  0  0
  3 17  1  0  0  0  0
 19 20  1  0  0  0  0
  4 19  1  0  0  0  0
 21 22  1  0  0  0  0
 22 23  1  0  0  0  0
 23 24  2  0  0  0  0
 23 28  1  0  0  0  0
 24 25  1  0  0  0  0
 25 26  2  0  0  0  0
 26 27  1  0  0  0  0
 27 28  2  0  0  0  0
 27 31  1  0  0  0  0
 28 29  1  0  0  0  0
 29 30  1  0  0  0  0
 31 32  1  0  0  0  0
  8 25  1  0  0  0  0
  7 33  1  0  0  0  0
M  END
> <score_Kier3>
0.511448

$$$$
suggested molecule #348
 MOE2019            2D

 33 36  0  0  0  0  0  0  0  0999 V2000
    3.4992   -1.2833    0.0000 C   0  0  0  0  0  0  0  0  0  1  0  0
    4.9992   -1.2762    0.0000 C   0  0  0  0  0  0  0  0  0  2  0  0
    5.7430    0.0263    0.0000 C   0  0  0  0  0  0  0  0  0  3  0  0
    4.9869    1.3218    0.0000 C   0  0  0  0  0  0  0  0  0  4  0  0
    3.4870    1.3147    0.0000 C   0  0  0  0  0  0  0  0  0  5  0  0
    2.7431    0.0122    0.0000 C   0  0  0  0  0  0  0  0  0  6  0  0
    1.2431    0.0051    0.0000 C   0  0  0  0  0  0  0  0  0  7  0  0
    0.4870    1.3006    0.0000 C   0  0  0  0  0  0  0  0  0  8  0  0
    1.2309    2.6032    0.0000 C   0  0  0  0  0  0  0  0  0  9  0  0
    0.4748    3.8987    0.0000 O   0  0  0  0  0  0  0  0  0 10  0  0
    2.7309    2.6102    0.0000 O   0  0  0  0  0  0  0  0  0 11  0  0
    2.9041   -2.3253    0.0000 H   0  0  0  0  0  0  0  0  0  0  0  0
    9.2946   -0.5060    0.0000 C   0  0  0  0  0  0  0  0  0  0  0  0
    7.9991   -1.2621    0.0000 C   0  0  0  0  0  0  0  0  0  0  0  0
    7.2552   -2.5647    0.0000 C   0  0  0  0  0  0  0  0  0  0  0  0
    5.7553   -2.5717    0.0000 C   0  0  0  0  0  0  0  0  0  0  0  0
    7.2430    0.0334    0.0000 O   0  0  0  0  0  0  0  0  0  0  0  0
    9.3017   -2.0060    0.0000 C   0  0  0  0  0  0  0  0  0  0  0  0
    5.7308    2.6244    0.0000 O   0  0  0  0  0  0  0  0  0  0  0  0
    7.2308    2.6314    0.0000 C   0  0  0  0  0  0  0  0  0  0  0  0
   -3.2446   -2.6141    0.0000 C   0  0  0  0  0  0  0  0  0  0  0  0
   -4.0007   -1.3186    0.0000 O   0  0  0  0  0  0  0  0  0  0  0  0
   -3.2569   -0.0160    0.0000 C   0  0  0  0  0  0  0  0  0  0  0  0
   -1.7569   -0.0090    0.0000 C   0  0  0  0  0  0  0  0  0  0  0  0
   -1.0130    1.2936    0.0000 C   0  0  0  0  0  0  0  0  0  0  0  0
   -1.7691    2.5891    0.0000 C   0  0  0  0  0  0  0  0  0  0  0  0
   -3.2691    2.5820    0.0000 C   0  0  0  0  0  0  0  0  0  0  0  0
   -4.0130    1.2795    0.0000 C   0  0  0  0  0  0  0  0  0  0  0  0
   -5.5129    1.2724    0.0000 O   0  0  0  0  0  0  0  0  0  0  0  0
   -6.2568   -0.0301    0.0000 C   0  0  0  0  0  0  0  0  0  0  0  0
   -4.0252    3.8775    0.0000 O   0  0  0  0  0  0  0  0  0  0  0  0
   -3.2813    5.1801    0.0000 C   0  0  0  0  0  0  0  0  0  0  0  0
    0.6480   -1.0369    0.0000 H   0  0  0  0  0  0  0  0  0  0  0  0
  1  2  1  0  0  0  0
  1  6  2  0  0  0  0
  2  3  2  0  0  0  0
  3  4  1  0  0  0  0
  4  5  2  0  0  0  0
  5  6  1  0  0  0  0
  5 11  1  0  0  0  0
  6  7  1  0  0  0  0
  7  8  2  0  0  0  0
  8  9  1  0  0  0  0
  9 10  2  0  0  0  0
  9 11  1  0  0  0  0
  1 12  1  0  0  0  0
 13 14  1  0  0  0  0
 14 15  1  0  0  0  0
 14 17  1  0  0  0  0
 14 18  1  0  0  0  0
 15 16  2  0  0  0  0
  2 16  1  0  0  0  0
  3 17  1  0  0  0  0
 19 20  1  0  0  0  0
  4 19  1  0  0  0  0
 21 22  1  0  0  0  0
 22 23  1  0  0  0  0
 23 24  2  0  0  0  0
 23 28  1  0  0  0  0
 24 25  1  0  0  0  0
 25 26  2  0  0  0  0
 26 27  1  0  0  0  0
 27 28  2  0  0  0  0
 27 31  1  0  0  0  0
 28 29  1  0  0  0  0
 29 30  1  0  0  0  0
 31 32  1  0  0  0  0
  8 25  1  0  0  0  0
  7 33  1  0  0  0  0
M  END
> <score_KierA1>
0.517603

$$$$
suggested molecule #349
 MOE2019            2D

 33 36  0  0  0  0  0  0  0  0999 V2000
    3.4992   -1.2833    0.0000 C   0  0  0  0  0  0  0  0  0  1  0  0
    4.9992   -1.2762    0.0000 C   0  0  0  0  0  0  0  0  0  2  0  0
    5.7430    0.0263    0.0000 C   0  0  0  0  0  0  0  0  0  3  0  0
    4.9869    1.3218    0.0000 C   0  0  0  0  0  0  0  0  0  4  0  0
    3.4870    1.3147    0.0000 C   0  0  0  0  0  0  0  0  0  5  0  0
    2.7431    0.0122    0.0000 C   0  0  0  0  0  0  0  0  0  6  0  0
    1.2431    0.0051    0.0000 C   0  0  0  0  0  0  0  0  0  7  0  0
    0.4870    1.3006    0.0000 C   0  0  0  0  0  0  0  0  0  8  0  0
    1.2309    2.6032    0.0000 C   0  0  0  0  0  0  0  0  0  9  0  0
    0.4748    3.8987    0.0000 O   0  0  0  0  0  0  0  0  0 10  0  0
    2.7309    2.6102    0.0000 O   0  0  0  0  0  0  0  0  0 11  0  0
    2.9041   -2.3253    0.0000 H   0  0  0  0  0  0  0  0  0  0  0  0
    9.2946   -0.5060    0.0000 C   0  0  0  0  0  0  0  0  0  0  0  0
    7.9991   -1.2621    0.0000 C   0  0  0  0  0  0  0  0  0  0  0  0
    7.2552   -2.5647    0.0000 C   0  0  0  0  0  0  0  0  0  0  0  0
    5.7553   -2.5717    0.0000 C   0  0  0  0  0  0  0  0  0  0  0  0
    7.2430    0.0334    0.0000 O   0  0  0  0  0  0  0  0  0  0  0  0
    9.3017   -2.0060    0.0000 C   0  0  0  0  0  0  0  0  0  0  0  0
    5.7308    2.6244    0.0000 O   0  0  0  0  0  0  0  0  0  0  0  0
    7.2308    2.6314    0.0000 C   0  0  0  0  0  0  0  0  0  0  0  0
   -3.2446   -2.6141    0.0000 C   0  0  0  0  0  0  0  0  0  0  0  0
   -4.0007   -1.3186    0.0000 O   0  0  0  0  0  0  0  0  0  0  0  0
   -3.2569   -0.0160    0.0000 C   0  0  0  0  0  0  0  0  0  0  0  0
   -1.7569   -0.0090    0.0000 C   0  0  0  0  0  0  0  0  0  0  0  0
   -1.0130    1.2936    0.0000 C   0  0  0  0  0  0  0  0  0  0  0  0
   -1.7691    2.5891    0.0000 C   0  0  0  0  0  0  0  0  0  0  0  0
   -3.2691    2.5820    0.0000 C   0  0  0  0  0  0  0  0  0  0  0  0
   -4.0130    1.2795    0.0000 C   0  0  0  0  0  0  0  0  0  0  0  0
   -5.5129    1.2724    0.0000 O   0  0  0  0  0  0  0  0  0  0  0  0
   -6.2568   -0.0301    0.0000 C   0  0  0  0  0  0  0  0  0  0  0  0
   -4.0252    3.8775    0.0000 O   0  0  0  0  0  0  0  0  0  0  0  0
   -3.2813    5.1801    0.0000 C   0  0  0  0  0  0  0  0  0  0  0  0
    0.6480   -1.0369    0.0000 H   0  0  0  0  0  0  0  0  0  0  0  0
  1  2  1  0  0  0  0
  1  6  2  0  0  0  0
  2  3  2  0  0  0  0
  3  4  1  0  0  0  0
  4  5  2  0  0  0  0
  5  6  1  0  0  0  0
  5 11  1  0  0  0  0
  6  7  1  0  0  0  0
  7  8  2  0  0  0  0
  8  9  1  0  0  0  0
  9 10  2  0  0  0  0
  9 11  1  0  0  0  0
  1 12  1  0  0  0  0
 13 14  1  0  0  0  0
 14 15  1  0  0  0  0
 14 17  1  0  0  0  0
 14 18  1  0  0  0  0
 15 16  2  0  0  0  0
  2 16  1  0  0  0  0
  3 17  1  0  0  0  0
 19 20  1  0  0  0  0
  4 19  1  0  0  0  0
 21 22  1  0  0  0  0
 22 23  1  0  0  0  0
 23 24  2  0  0  0  0
 23 28  1  0  0  0  0
 24 25  1  0  0  0  0
 25 26  2  0  0  0  0
 26 27  1  0  0  0  0
 27 28  2  0  0  0  0
 27 31  1  0  0  0  0
 28 29  1  0  0  0  0
 29 30  1  0  0  0  0
 31 32  1  0  0  0  0
  8 25  1  0  0  0  0
  7 33  1  0  0  0  0
M  END
> <score_KierFlex>
0.516256

$$$$
suggested molecule #350
 MOE2019            2D

 33 36  0  0  0  0  0  0  0  0999 V2000
    3.4992   -1.2833    0.0000 C   0  0  0  0  0  0  0  0  0  1  0  0
    4.9992   -1.2762    0.0000 C   0  0  0  0  0  0  0  0  0  2  0  0
    5.7430    0.0263    0.0000 C   0  0  0  0  0  0  0  0  0  3  0  0
    4.9869    1.3218    0.0000 C   0  0  0  0  0  0  0  0  0  4  0  0
    3.4870    1.3147    0.0000 C   0  0  0  0  0  0  0  0  0  5  0  0
    2.7431    0.0122    0.0000 C   0  0  0  0  0  0  0  0  0  6  0  0
    1.2431    0.0051    0.0000 C   0  0  0  0  0  0  0  0  0  7  0  0
    0.4870    1.3006    0.0000 C   0  0  0  0  0  0  0  0  0  8  0  0
    1.2309    2.6032    0.0000 C   0  0  0  0  0  0  0  0  0  9  0  0
    0.4748    3.8987    0.0000 O   0  0  0  0  0  0  0  0  0 10  0  0
    2.7309    2.6102    0.0000 O   0  0  0  0  0  0  0  0  0 11  0  0
    2.9041   -2.3253    0.0000 H   0  0  0  0  0  0  0  0  0  0  0  0
    9.3017   -2.0060    0.0000 C   0  0  0  0  0  0  0  0  0  0  0  0
    7.9991   -1.2621    0.0000 C   0  0  0  0  0  0  0  0  0  0  0  0
    7.2552   -2.5647    0.0000 C   0  0  0  0  0  0  0  0  0  0  0  0
    5.7553   -2.5717    0.0000 C   0  0  0  0  0  0  0  0  0  0  0  0
    7.2430    0.0334    0.0000 O   0  0  0  0  0  0  0  0  0  0  0  0
    9.2946   -0.5060    0.0000 C   0  0  0  0  0  0  0  0  0  0  0  0
    5.7308    2.6244    0.0000 O   0  0  0  0  0  0  0  0  0  0  0  0
    7.2308    2.6314    0.0000 C   0  0  0  0  0  0  0  0  0  0  0  0
   -7.7446   -2.6352    0.0000 C   0  0  0  0  0  0  0  0  0  0  0  0
   -6.2446   -2.6282    0.0000 C   0  0  0  0  0  0  0  0  0  0  0  0
   -5.5007   -1.3256    0.0000 C   0  0  0  0  0  0  0  0  0  0  0  0
   -4.0007   -1.3186    0.0000 C   0  0  0  0  0  0  0  0  0  0  0  0
   -3.2569   -0.0160    0.0000 C   0  0  0  0  0  0  0  0  0  0  0  0
   -4.0130    1.2795    0.0000 C   0  0  0  0  0  0  0  0  0  0  0  0
   -3.2691    2.5820    0.0000 C   0  0  0  0  0  0  0  0  0  0  0  0
   -1.7691    2.5891    0.0000 C   0  0  0  0  0  0  0  0  0  0  0  0
   -1.0130    1.2936    0.0000 C   0  0  0  0  0  0  0  0  0  0  0  0
   -1.7569   -0.0090    0.0000 C   0  0  0  0  0  0  0  0  0  0  0  0
   -5.5129    1.2724    0.0000 O   0  0  0  0  0  0  0  0  0  0  0  0
   -5.4885   -3.9237    0.0000 C   0  0  0  0  0  0  0  0  0  0  0  0
    0.6480   -1.0369    0.0000 H   0  0  0  0  0  0  0  0  0  0  0  0
  1  2  2  0  0  0  0
  1  6  1  0  0  0  0
  2  3  1  0  0  0  0
  3  4  2  0  0  0  0
  4  5  1  0  0  0  0
  5  6  2  0  0  0  0
  5 11  1  0  0  0  0
  6  7  1  0  0  0  0
  7  8  2  0  0  0  0
  8  9  1  0  0  0  0
  9 10  2  0  0  0  0
  9 11  1  0  0  0  0
  1 12  1  0  0  0  0
 13 14  1  0  0  0  0
 14 15  1  0  0  0  0
 14 17  1  0  0  0  0
 14 18  1  0  0  0  0
 15 16  2  0  0  0  0
  2 16  1  0  0  0  0
  3 17  1  0  0  0  0
 19 20  1  0  0  0  0
  4 19  1  0  0  0  0
 21 22  1  0  0  0  0
 22 23  2  0  0  0  0
 22 32  1  0  0  0  0
 23 24  1  0  0  0  0
 24 25  1  0  0  0  0
 25 26  1  0  0  0  0
 25 30  2  0  0  0  0
 26 27  2  0  0  0  0
 26 31  1  0  0  0  0
 27 28  1  0  0  0  0
 28 29  2  0  0  0  0
 29 30  1  0  0  0  0
  8 29  1  0  0  0  0
  7 33  1  0  0  0  0
M  END
> <score_Kier1>
0.51772

$$$$
suggested molecule #351
 MOE2019            2D

 33 36  0  0  0  0  0  0  0  0999 V2000
    3.4992   -1.2833    0.0000 C   0  0  0  0  0  0  0  0  0  1  0  0
    4.9992   -1.2762    0.0000 C   0  0  0  0  0  0  0  0  0  2  0  0
    5.7430    0.0263    0.0000 C   0  0  0  0  0  0  0  0  0  3  0  0
    4.9869    1.3218    0.0000 C   0  0  0  0  0  0  0  0  0  4  0  0
    3.4870    1.3147    0.0000 C   0  0  0  0  0  0  0  0  0  5  0  0
    2.7431    0.0122    0.0000 C   0  0  0  0  0  0  0  0  0  6  0  0
    1.2431    0.0051    0.0000 C   0  0  0  0  0  0  0  0  0  7  0  0
    0.4870    1.3006    0.0000 C   0  0  0  0  0  0  0  0  0  8  0  0
    1.2309    2.6032    0.0000 C   0  0  0  0  0  0  0  0  0  9  0  0
    0.4748    3.8987    0.0000 O   0  0  0  0  0  0  0  0  0 10  0  0
    2.7309    2.6102    0.0000 O   0  0  0  0  0  0  0  0  0 11  0  0
    2.9041   -2.3253    0.0000 H   0  0  0  0  0  0  0  0  0  0  0  0
    9.3017   -2.0060    0.0000 C   0  0  0  0  0  0  0  0  0  0  0  0
    7.9991   -1.2621    0.0000 C   0  0  0  0  0  0  0  0  0  0  0  0
    7.2552   -2.5647    0.0000 C   0  0  0  0  0  0  0  0  0  0  0  0
    5.7553   -2.5717    0.0000 C   0  0  0  0  0  0  0  0  0  0  0  0
    7.2430    0.0334    0.0000 O   0  0  0  0  0  0  0  0  0  0  0  0
    9.2946   -0.5060    0.0000 C   0  0  0  0  0  0  0  0  0  0  0  0
    5.7308    2.6244    0.0000 O   0  0  0  0  0  0  0  0  0  0  0  0
    7.2308    2.6314    0.0000 C   0  0  0  0  0  0  0  0  0  0  0  0
   -7.7446   -2.6352    0.0000 C   0  0  0  0  0  0  0  0  0  0  0  0
   -6.2446   -2.6282    0.0000 C   0  0  0  0  0  0  0  0  0  0  0  0
   -5.5007   -1.3256    0.0000 C   0  0  0  0  0  0  0  0  0  0  0  0
   -4.0007   -1.3186    0.0000 C   0  0  0  0  0  0  0  0  0  0  0  0
   -3.2569   -0.0160    0.0000 C   0  0  0  0  0  0  0  0  0  0  0  0
   -4.0130    1.2795    0.0000 C   0  0  0  0  0  0  0  0  0  0  0  0
   -3.2691    2.5820    0.0000 C   0  0  0  0  0  0  0  0  0  0  0  0
   -1.7691    2.5891    0.0000 C   0  0  0  0  0  0  0  0  0  0  0  0
   -1.0130    1.2936    0.0000 C   0  0  0  0  0  0  0  0  0  0  0  0
   -1.7569   -0.0090    0.0000 C   0  0  0  0  0  0  0  0  0  0  0  0
   -5.5129    1.2724    0.0000 O   0  0  0  0  0  0  0  0  0  0  0  0
   -5.4885   -3.9237    0.0000 C   0  0  0  0  0  0  0  0  0  0  0  0
    0.6480   -1.0369    0.0000 H   0  0  0  0  0  0  0  0  0  0  0  0
  1  2  2  0  0  0  0
  1  6  1  0  0  0  0
  2  3  1  0  0  0  0
  3  4  2  0  0  0  0
  4  5  1  0  0  0  0
  5  6  2  0  0  0  0
  5 11  1  0  0  0  0
  6  7  1  0  0  0  0
  7  8  2  0  0  0  0
  8  9  1  0  0  0  0
  9 10  2  0  0  0  0
  9 11  1  0  0  0  0
  1 12  1  0  0  0  0
 13 14  1  0  0  0  0
 14 15  1  0  0  0  0
 14 17  1  0  0  0  0
 14 18  1  0  0  0  0
 15 16  2  0  0  0  0
  2 16  1  0  0  0  0
  3 17  1  0  0  0  0
 19 20  1  0  0  0  0
  4 19  1  0  0  0  0
 21 22  1  0  0  0  0
 22 23  2  0  0  0  0
 22 32  1  0  0  0  0
 23 24  1  0  0  0  0
 24 25  1  0  0  0  0
 25 26  1  0  0  0  0
 25 30  2  0  0  0  0
 26 27  2  0  0  0  0
 26 31  1  0  0  0  0
 27 28  1  0  0  0  0
 28 29  2  0  0  0  0
 29 30  1  0  0  0  0
  8 29  1  0  0  0  0
  7 33  1  0  0  0  0
M  END
> <score_Kier2>
0.51646

$$$$
suggested molecule #352
 MOE2019            2D

 33 36  0  0  0  0  0  0  0  0999 V2000
    3.4992   -1.2833    0.0000 C   0  0  0  0  0  0  0  0  0  1  0  0
    4.9992   -1.2762    0.0000 C   0  0  0  0  0  0  0  0  0  2  0  0
    5.7430    0.0263    0.0000 C   0  0  0  0  0  0  0  0  0  3  0  0
    4.9869    1.3218    0.0000 C   0  0  0  0  0  0  0  0  0  4  0  0
    3.4870    1.3147    0.0000 C   0  0  0  0  0  0  0  0  0  5  0  0
    2.7431    0.0122    0.0000 C   0  0  0  0  0  0  0  0  0  6  0  0
    1.2431    0.0051    0.0000 C   0  0  0  0  0  0  0  0  0  7  0  0
    0.4870    1.3006    0.0000 C   0  0  0  0  0  0  0  0  0  8  0  0
    1.2309    2.6032    0.0000 C   0  0  0  0  0  0  0  0  0  9  0  0
    0.4748    3.8987    0.0000 O   0  0  0  0  0  0  0  0  0 10  0  0
    2.7309    2.6102    0.0000 O   0  0  0  0  0  0  0  0  0 11  0  0
    2.9041   -2.3253    0.0000 H   0  0  0  0  0  0  0  0  0  0  0  0
    9.3017   -2.0060    0.0000 C   0  0  0  0  0  0  0  0  0  0  0  0
    7.9991   -1.2621    0.0000 C   0  0  0  0  0  0  0  0  0  0  0  0
    7.2552   -2.5647    0.0000 C   0  0  0  0  0  0  0  0  0  0  0  0
    5.7553   -2.5717    0.0000 C   0  0  0  0  0  0  0  0  0  0  0  0
    7.2430    0.0334    0.0000 O   0  0  0  0  0  0  0  0  0  0  0  0
    9.2946   -0.5060    0.0000 C   0  0  0  0  0  0  0  0  0  0  0  0
    5.7308    2.6244    0.0000 O   0  0  0  0  0  0  0  0  0  0  0  0
    7.2308    2.6314    0.0000 C   0  0  0  0  0  0  0  0  0  0  0  0
   -7.7446   -2.6352    0.0000 C   0  0  0  0  0  0  0  0  0  0  0  0
   -6.2446   -2.6282    0.0000 C   0  0  0  0  0  0  0  0  0  0  0  0
   -5.5007   -1.3256    0.0000 C   0  0  0  0  0  0  0  0  0  0  0  0
   -4.0007   -1.3186    0.0000 C   0  0  0  0  0  0  0  0  0  0  0  0
   -3.2569   -0.0160    0.0000 C   0  0  0  0  0  0  0  0  0  0  0  0
   -4.0130    1.2795    0.0000 C   0  0  0  0  0  0  0  0  0  0  0  0
   -3.2691    2.5820    0.0000 C   0  0  0  0  0  0  0  0  0  0  0  0
   -1.7691    2.5891    0.0000 C   0  0  0  0  0  0  0  0  0  0  0  0
   -1.0130    1.2936    0.0000 C   0  0  0  0  0  0  0  0  0  0  0  0
   -1.7569   -0.0090    0.0000 C   0  0  0  0  0  0  0  0  0  0  0  0
   -5.5129    1.2724    0.0000 O   0  0  0  0  0  0  0  0  0  0  0  0
   -5.4885   -3.9237    0.0000 C   0  0  0  0  0  0  0  0  0  0  0  0
    0.6480   -1.0369    0.0000 H   0  0  0  0  0  0  0  0  0  0  0  0
  1  2  2  0  0  0  0
  1  6  1  0  0  0  0
  2  3  1  0  0  0  0
  3  4  2  0  0  0  0
  4  5  1  0  0  0  0
  5  6  2  0  0  0  0
  5 11  1  0  0  0  0
  6  7  1  0  0  0  0
  7  8  2  0  0  0  0
  8  9  1  0  0  0  0
  9 10  2  0  0  0  0
  9 11  1  0  0  0  0
  1 12  1  0  0  0  0
 13 14  1  0  0  0  0
 14 15  1  0  0  0  0
 14 17  1  0  0  0  0
 14 18  1  0  0  0  0
 15 16  2  0  0  0  0
  2 16  1  0  0  0  0
  3 17  1  0  0  0  0
 19 20  1  0  0  0  0
  4 19  1  0  0  0  0
 21 22  1  0  0  0  0
 22 23  2  0  0  0  0
 22 32  1  0  0  0  0
 23 24  1  0  0  0  0
 24 25  1  0  0  0  0
 25 26  1  0  0  0  0
 25 30  2  0  0  0  0
 26 27  2  0  0  0  0
 26 31  1  0  0  0  0
 27 28  1  0  0  0  0
 28 29  2  0  0  0  0
 29 30  1  0  0  0  0
  8 29  1  0  0  0  0
  7 33  1  0  0  0  0
M  END
> <score_Kier3>
0.51145

$$$$
suggested molecule #353
 MOE2019            2D

 33 36  0  0  0  0  0  0  0  0999 V2000
    3.4992   -1.2833    0.0000 C   0  0  0  0  0  0  0  0  0  1  0  0
    4.9992   -1.2762    0.0000 C   0  0  0  0  0  0  0  0  0  2  0  0
    5.7430    0.0263    0.0000 C   0  0  0  0  0  0  0  0  0  3  0  0
    4.9869    1.3218    0.0000 C   0  0  0  0  0  0  0  0  0  4  0  0
    3.4870    1.3147    0.0000 C   0  0  0  0  0  0  0  0  0  5  0  0
    2.7431    0.0122    0.0000 C   0  0  0  0  0  0  0  0  0  6  0  0
    1.2431    0.0051    0.0000 C   0  0  0  0  0  0  0  0  0  7  0  0
    0.4870    1.3006    0.0000 C   0  0  0  0  0  0  0  0  0  8  0  0
    1.2309    2.6032    0.0000 C   0  0  0  0  0  0  0  0  0  9  0  0
    0.4748    3.8987    0.0000 O   0  0  0  0  0  0  0  0  0 10  0  0
    2.7309    2.6102    0.0000 O   0  0  0  0  0  0  0  0  0 11  0  0
    2.9041   -2.3253    0.0000 H   0  0  0  0  0  0  0  0  0  0  0  0
    9.3017   -2.0060    0.0000 C   0  0  0  0  0  0  0  0  0  0  0  0
    7.9991   -1.2621    0.0000 C   0  0  0  0  0  0  0  0  0  0  0  0
    7.2552   -2.5647    0.0000 C   0  0  0  0  0  0  0  0  0  0  0  0
    5.7553   -2.5717    0.0000 C   0  0  0  0  0  0  0  0  0  0  0  0
    7.2430    0.0334    0.0000 O   0  0  0  0  0  0  0  0  0  0  0  0
    9.2946   -0.5060    0.0000 C   0  0  0  0  0  0  0  0  0  0  0  0
    5.7308    2.6244    0.0000 O   0  0  0  0  0  0  0  0  0  0  0  0
    7.2308    2.6314    0.0000 C   0  0  0  0  0  0  0  0  0  0  0  0
   -7.7446   -2.6352    0.0000 C   0  0  0  0  0  0  0  0  0  0  0  0
   -6.2446   -2.6282    0.0000 C   0  0  0  0  0  0  0  0  0  0  0  0
   -5.5007   -1.3256    0.0000 C   0  0  0  0  0  0  0  0  0  0  0  0
   -4.0007   -1.3186    0.0000 C   0  0  0  0  0  0  0  0  0  0  0  0
   -3.2569   -0.0160    0.0000 C   0  0  0  0  0  0  0  0  0  0  0  0
   -4.0130    1.2795    0.0000 C   0  0  0  0  0  0  0  0  0  0  0  0
   -3.2691    2.5820    0.0000 C   0  0  0  0  0  0  0  0  0  0  0  0
   -1.7691    2.5891    0.0000 C   0  0  0  0  0  0  0  0  0  0  0  0
   -1.0130    1.2936    0.0000 C   0  0  0  0  0  0  0  0  0  0  0  0
   -1.7569   -0.0090    0.0000 C   0  0  0  0  0  0  0  0  0  0  0  0
   -5.5129    1.2724    0.0000 O   0  0  0  0  0  0  0  0  0  0  0  0
   -5.4885   -3.9237    0.0000 C   0  0  0  0  0  0  0  0  0  0  0  0
    0.6480   -1.0369    0.0000 H   0  0  0  0  0  0  0  0  0  0  0  0
  1  2  2  0  0  0  0
  1  6  1  0  0  0  0
  2  3  1  0  0  0  0
  3  4  2  0  0  0  0
  4  5  1  0  0  0  0
  5  6  2  0  0  0  0
  5 11  1  0  0  0  0
  6  7  1  0  0  0  0
  7  8  2  0  0  0  0
  8  9  1  0  0  0  0
  9 10  2  0  0  0  0
  9 11  1  0  0  0  0
  1 12  1  0  0  0  0
 13 14  1  0  0  0  0
 14 15  1  0  0  0  0
 14 17  1  0  0  0  0
 14 18  1  0  0  0  0
 15 16  2  0  0  0  0
  2 16  1  0  0  0  0
  3 17  1  0  0  0  0
 19 20  1  0  0  0  0
  4 19  1  0  0  0  0
 21 22  1  0  0  0  0
 22 23  2  0  0  0  0
 22 32  1  0  0  0  0
 23 24  1  0  0  0  0
 24 25  1  0  0  0  0
 25 26  1  0  0  0  0
 25 30  2  0  0  0  0
 26 27  2  0  0  0  0
 26 31  1  0  0  0  0
 27 28  1  0  0  0  0
 28 29  2  0  0  0  0
 29 30  1  0  0  0  0
  8 29  1  0  0  0  0
  7 33  1  0  0  0  0
M  END
> <score_KierA1>
0.517642

$$$$
suggested molecule #354
 MOE2019            2D

 33 36  0  0  0  0  0  0  0  0999 V2000
    3.4992   -1.2833    0.0000 C   0  0  0  0  0  0  0  0  0  1  0  0
    4.9992   -1.2762    0.0000 C   0  0  0  0  0  0  0  0  0  2  0  0
    5.7430    0.0263    0.0000 C   0  0  0  0  0  0  0  0  0  3  0  0
    4.9869    1.3218    0.0000 C   0  0  0  0  0  0  0  0  0  4  0  0
    3.4870    1.3147    0.0000 C   0  0  0  0  0  0  0  0  0  5  0  0
    2.7431    0.0122    0.0000 C   0  0  0  0  0  0  0  0  0  6  0  0
    1.2431    0.0051    0.0000 C   0  0  0  0  0  0  0  0  0  7  0  0
    0.4870    1.3006    0.0000 C   0  0  0  0  0  0  0  0  0  8  0  0
    1.2309    2.6032    0.0000 C   0  0  0  0  0  0  0  0  0  9  0  0
    0.4748    3.8987    0.0000 O   0  0  0  0  0  0  0  0  0 10  0  0
    2.7309    2.6102    0.0000 O   0  0  0  0  0  0  0  0  0 11  0  0
    2.9041   -2.3253    0.0000 H   0  0  0  0  0  0  0  0  0  0  0  0
    9.3017   -2.0060    0.0000 C   0  0  0  0  0  0  0  0  0  0  0  0
    7.9991   -1.2621    0.0000 C   0  0  0  0  0  0  0  0  0  0  0  0
    7.2552   -2.5647    0.0000 C   0  0  0  0  0  0  0  0  0  0  0  0
    5.7553   -2.5717    0.0000 C   0  0  0  0  0  0  0  0  0  0  0  0
    7.2430    0.0334    0.0000 O   0  0  0  0  0  0  0  0  0  0  0  0
    9.2946   -0.5060    0.0000 C   0  0  0  0  0  0  0  0  0  0  0  0
    5.7308    2.6244    0.0000 O   0  0  0  0  0  0  0  0  0  0  0  0
    7.2308    2.6314    0.0000 C   0  0  0  0  0  0  0  0  0  0  0  0
   -7.7446   -2.6352    0.0000 C   0  0  0  0  0  0  0  0  0  0  0  0
   -6.2446   -2.6282    0.0000 C   0  0  0  0  0  0  0  0  0  0  0  0
   -5.5007   -1.3256    0.0000 C   0  0  0  0  0  0  0  0  0  0  0  0
   -4.0007   -1.3186    0.0000 C   0  0  0  0  0  0  0  0  0  0  0  0
   -3.2569   -0.0160    0.0000 C   0  0  0  0  0  0  0  0  0  0  0  0
   -4.0130    1.2795    0.0000 C   0  0  0  0  0  0  0  0  0  0  0  0
   -3.2691    2.5820    0.0000 C   0  0  0  0  0  0  0  0  0  0  0  0
   -1.7691    2.5891    0.0000 C   0  0  0  0  0  0  0  0  0  0  0  0
   -1.0130    1.2936    0.0000 C   0  0  0  0  0  0  0  0  0  0  0  0
   -1.7569   -0.0090    0.0000 C   0  0  0  0  0  0  0  0  0  0  0  0
   -5.5129    1.2724    0.0000 O   0  0  0  0  0  0  0  0  0  0  0  0
   -5.4885   -3.9237    0.0000 C   0  0  0  0  0  0  0  0  0  0  0  0
    0.6480   -1.0369    0.0000 H   0  0  0  0  0  0  0  0  0  0  0  0
  1  2  2  0  0  0  0
  1  6  1  0  0  0  0
  2  3  1  0  0  0  0
  3  4  2  0  0  0  0
  4  5  1  0  0  0  0
  5  6  2  0  0  0  0
  5 11  1  0  0  0  0
  6  7  1  0  0  0  0
  7  8  2  0  0  0  0
  8  9  1  0  0  0  0
  9 10  2  0  0  0  0
  9 11  1  0  0  0  0
  1 12  1  0  0  0  0
 13 14  1  0  0  0  0
 14 15  1  0  0  0  0
 14 17  1  0  0  0  0
 14 18  1  0  0  0  0
 15 16  2  0  0  0  0
  2 16  1  0  0  0  0
  3 17  1  0  0  0  0
 19 20  1  0  0  0  0
  4 19  1  0  0  0  0
 21 22  1  0  0  0  0
 22 23  2  0  0  0  0
 22 32  1  0  0  0  0
 23 24  1  0  0  0  0
 24 25  1  0  0  0  0
 25 26  1  0  0  0  0
 25 30  2  0  0  0  0
 26 27  2  0  0  0  0
 26 31  1  0  0  0  0
 27 28  1  0  0  0  0
 28 29  2  0  0  0  0
 29 30  1  0  0  0  0
  8 29  1  0  0  0  0
  7 33  1  0  0  0  0
M  END
> <score_KierA2>
0.516737

$$$$
suggested molecule #355
 MOE2019            2D

 33 36  0  0  0  0  0  0  0  0999 V2000
    3.4992   -1.2833    0.0000 C   0  0  0  0  0  0  0  0  0  1  0  0
    4.9992   -1.2762    0.0000 C   0  0  0  0  0  0  0  0  0  2  0  0
    5.7430    0.0263    0.0000 C   0  0  0  0  0  0  0  0  0  3  0  0
    4.9869    1.3218    0.0000 C   0  0  0  0  0  0  0  0  0  4  0  0
    3.4870    1.3147    0.0000 C   0  0  0  0  0  0  0  0  0  5  0  0
    2.7431    0.0122    0.0000 C   0  0  0  0  0  0  0  0  0  6  0  0
    1.2431    0.0051    0.0000 C   0  0  0  0  0  0  0  0  0  7  0  0
    0.4870    1.3006    0.0000 C   0  0  0  0  0  0  0  0  0  8  0  0
    1.2309    2.6032    0.0000 C   0  0  0  0  0  0  0  0  0  9  0  0
    0.4748    3.8987    0.0000 O   0  0  0  0  0  0  0  0  0 10  0  0
    2.7309    2.6102    0.0000 O   0  0  0  0  0  0  0  0  0 11  0  0
    2.9041   -2.3253    0.0000 H   0  0  0  0  0  0  0  0  0  0  0  0
    9.3017   -2.0060    0.0000 C   0  0  0  0  0  0  0  0  0  0  0  0
    7.9991   -1.2621    0.0000 C   0  0  0  0  0  0  0  0  0  0  0  0
    7.2552   -2.5647    0.0000 C   0  0  0  0  0  0  0  0  0  0  0  0
    5.7553   -2.5717    0.0000 C   0  0  0  0  0  0  0  0  0  0  0  0
    7.2430    0.0334    0.0000 O   0  0  0  0  0  0  0  0  0  0  0  0
    9.2946   -0.5060    0.0000 C   0  0  0  0  0  0  0  0  0  0  0  0
    5.7308    2.6244    0.0000 O   0  0  0  0  0  0  0  0  0  0  0  0
    7.2308    2.6314    0.0000 C   0  0  0  0  0  0  0  0  0  0  0  0
   -7.7446   -2.6352    0.0000 C   0  0  0  0  0  0  0  0  0  0  0  0
   -6.2446   -2.6282    0.0000 C   0  0  0  0  0  0  0  0  0  0  0  0
   -5.5007   -1.3256    0.0000 C   0  0  0  0  0  0  0  0  0  0  0  0
   -4.0007   -1.3186    0.0000 C   0  0  0  0  0  0  0  0  0  0  0  0
   -3.2569   -0.0160    0.0000 C   0  0  0  0  0  0  0  0  0  0  0  0
   -4.0130    1.2795    0.0000 C   0  0  0  0  0  0  0  0  0  0  0  0
   -3.2691    2.5820    0.0000 C   0  0  0  0  0  0  0  0  0  0  0  0
   -1.7691    2.5891    0.0000 C   0  0  0  0  0  0  0  0  0  0  0  0
   -1.0130    1.2936    0.0000 C   0  0  0  0  0  0  0  0  0  0  0  0
   -1.7569   -0.0090    0.0000 C   0  0  0  0  0  0  0  0  0  0  0  0
   -5.5129    1.2724    0.0000 O   0  0  0  0  0  0  0  0  0  0  0  0
   -5.4885   -3.9237    0.0000 C   0  0  0  0  0  0  0  0  0  0  0  0
    0.6480   -1.0369    0.0000 H   0  0  0  0  0  0  0  0  0  0  0  0
  1  2  2  0  0  0  0
  1  6  1  0  0  0  0
  2  3  1  0  0  0  0
  3  4  2  0  0  0  0
  4  5  1  0  0  0  0
  5  6  2  0  0  0  0
  5 11  1  0  0  0  0
  6  7  1  0  0  0  0
  7  8  2  0  0  0  0
  8  9  1  0  0  0  0
  9 10  2  0  0  0  0
  9 11  1  0  0  0  0
  1 12  1  0  0  0  0
 13 14  1  0  0  0  0
 14 15  1  0  0  0  0
 14 17  1  0  0  0  0
 14 18  1  0  0  0  0
 15 16  2  0  0  0  0
  2 16  1  0  0  0  0
  3 17  1  0  0  0  0
 19 20  1  0  0  0  0
  4 19  1  0  0  0  0
 21 22  1  0  0  0  0
 22 23  2  0  0  0  0
 22 32  1  0  0  0  0
 23 24  1  0  0  0  0
 24 25  1  0  0  0  0
 25 26  1  0  0  0  0
 25 30  2  0  0  0  0
 26 27  2  0  0  0  0
 26 31  1  0  0  0  0
 27 28  1  0  0  0  0
 28 29  2  0  0  0  0
 29 30  1  0  0  0  0
  8 29  1  0  0  0  0
  7 33  1  0  0  0  0
M  END
> <score_KierFlex>
0.516307

$$$$
suggested molecule #356
 MOE2019            2D

 26 28  0  0  0  0  0  0  0  0999 V2000
    3.4992   -1.2833    0.0000 C   0  0  0  0  0  0  0  0  0  1  0  0
    4.9992   -1.2762    0.0000 C   0  0  0  0  0  0  0  0  0  2  0  0
    5.7430    0.0263    0.0000 C   0  0  0  0  0  0  0  0  0  3  0  0
    4.9869    1.3218    0.0000 C   0  0  0  0  0  0  0  0  0  4  0  0
    3.4870    1.3147    0.0000 C   0  0  0  0  0  0  0  0  0  5  0  0
    2.7431    0.0122    0.0000 C   0  0  0  0  0  0  0  0  0  6  0  0
    1.2431    0.0051    0.0000 C   0  0  0  0  0  0  0  0  0  7  0  0
    0.4870    1.3006    0.0000 C   0  0  0  0  0  0  0  0  0  8  0  0
    1.2309    2.6032    0.0000 C   0  0  0  0  0  0  0  0  0  9  0  0
    0.4748    3.8987    0.0000 O   0  0  0  0  0  0  0  0  0 10  0  0
    2.7309    2.6102    0.0000 O   0  0  0  0  0  0  0  0  0 11  0  0
    2.9041   -2.3253    0.0000 H   0  0  0  0  0  0  0  0  0  0  0  0
    9.2946   -0.5060    0.0000 C   0  0  0  0  0  0  0  0  0  0  0  0
    7.9991   -1.2621    0.0000 C   0  0  0  0  0  0  0  0  0  0  0  0
    7.2552   -2.5647    0.0000 C   0  0  0  0  0  0  0  0  0  0  0  0
    5.7553   -2.5717    0.0000 C   0  0  0  0  0  0  0  0  0  0  0  0
    7.2430    0.0334    0.0000 O   0  0  0  0  0  0  0  0  0  0  0  0
    9.3017   -2.0060    0.0000 C   0  0  0  0  0  0  0  0  0  0  0  0
    5.7308    2.6244    0.0000 O   0  0  0  0  0  0  0  0  0  0  0  0
    4.9747    3.9198    0.0000 C   0  0  0  0  0  0  0  0  0  0  0  0
   -1.0130    1.2936    0.0000 C   0  0  0  0  0  0  0  0  0  0  0  0
   -1.0200    2.7936    0.0000 C   0  0  0  0  0  0  0  0  0  0  0  0
   -1.0059   -0.2064    0.0000 C   0  0  0  0  0  0  0  0  0  0  0  0
   -2.5130    1.2865    0.0000 C   0  0  0  0  0  0  0  0  0  0  0  0
   -3.2569   -0.0160    0.0000 C   0  0  0  0  0  0  0  0  0  0  0  0
    0.6480   -1.0369    0.0000 H   0  0  0  0  0  0  0  0  0  0  0  0
  1  2  1  0  0  0  0
  1  6  2  0  0  0  0
  2  3  2  0  0  0  0
  3  4  1  0  0  0  0
  4  5  2  0  0  0  0
  5  6  1  0  0  0  0
  5 11  1  0  0  0  0
  6  7  1  0  0  0  0
  7  8  2  0  0  0  0
  8  9  1  0  0  0  0
  9 10  2  0  0  0  0
  9 11  1  0  0  0  0
  1 12  1  0  0  0  0
 13 14  1  0  0  0  0
 14 15  1  0  0  0  0
 14 17  1  0  0  0  0
 14 18  1  0  0  0  0
 15 16  2  0  0  0  0
  2 16  1  0  0  0  0
  3 17  1  0  0  0  0
 19 20  1  0  0  0  0
  4 19  1  0  0  0  0
 21 22  1  0  0  0  0
 21 23  1  0  0  0  0
 21 24  1  0  0  0  0
 24 25  2  0  0  0  0
  8 21  1  0  0  0  0
  7 26  1  0  0  0  0
M  END
> <score_Kier1>
0.517713

$$$$
suggested molecule #357
 MOE2019            2D

 26 28  0  0  0  0  0  0  0  0999 V2000
    3.4992   -1.2833    0.0000 C   0  0  0  0  0  0  0  0  0  1  0  0
    4.9992   -1.2762    0.0000 C   0  0  0  0  0  0  0  0  0  2  0  0
    5.7430    0.0263    0.0000 C   0  0  0  0  0  0  0  0  0  3  0  0
    4.9869    1.3218    0.0000 C   0  0  0  0  0  0  0  0  0  4  0  0
    3.4870    1.3147    0.0000 C   0  0  0  0  0  0  0  0  0  5  0  0
    2.7431    0.0122    0.0000 C   0  0  0  0  0  0  0  0  0  6  0  0
    1.2431    0.0051    0.0000 C   0  0  0  0  0  0  0  0  0  7  0  0
    0.4870    1.3006    0.0000 C   0  0  0  0  0  0  0  0  0  8  0  0
    1.2309    2.6032    0.0000 C   0  0  0  0  0  0  0  0  0  9  0  0
    0.4748    3.8987    0.0000 O   0  0  0  0  0  0  0  0  0 10  0  0
    2.7309    2.6102    0.0000 O   0  0  0  0  0  0  0  0  0 11  0  0
    2.9041   -2.3253    0.0000 H   0  0  0  0  0  0  0  0  0  0  0  0
    9.2946   -0.5060    0.0000 C   0  0  0  0  0  0  0  0  0  0  0  0
    7.9991   -1.2621    0.0000 C   0  0  0  0  0  0  0  0  0  0  0  0
    7.2552   -2.5647    0.0000 C   0  0  0  0  0  0  0  0  0  0  0  0
    5.7553   -2.5717    0.0000 C   0  0  0  0  0  0  0  0  0  0  0  0
    7.2430    0.0334    0.0000 O   0  0  0  0  0  0  0  0  0  0  0  0
    9.3017   -2.0060    0.0000 C   0  0  0  0  0  0  0  0  0  0  0  0
    5.7308    2.6244    0.0000 O   0  0  0  0  0  0  0  0  0  0  0  0
    4.9747    3.9198    0.0000 C   0  0  0  0  0  0  0  0  0  0  0  0
   -1.0130    1.2936    0.0000 C   0  0  0  0  0  0  0  0  0  0  0  0
   -1.0200    2.7936    0.0000 C   0  0  0  0  0  0  0  0  0  0  0  0
   -1.0059   -0.2064    0.0000 C   0  0  0  0  0  0  0  0  0  0  0  0
   -2.5130    1.2865    0.0000 C   0  0  0  0  0  0  0  0  0  0  0  0
   -3.2569   -0.0160    0.0000 C   0  0  0  0  0  0  0  0  0  0  0  0
    0.6480   -1.0369    0.0000 H   0  0  0  0  0  0  0  0  0  0  0  0
  1  2  1  0  0  0  0
  1  6  2  0  0  0  0
  2  3  2  0  0  0  0
  3  4  1  0  0  0  0
  4  5  2  0  0  0  0
  5  6  1  0  0  0  0
  5 11  1  0  0  0  0
  6  7  1  0  0  0  0
  7  8  2  0  0  0  0
  8  9  1  0  0  0  0
  9 10  2  0  0  0  0
  9 11  1  0  0  0  0
  1 12  1  0  0  0  0
 13 14  1  0  0  0  0
 14 15  1  0  0  0  0
 14 17  1  0  0  0  0
 14 18  1  0  0  0  0
 15 16  2  0  0  0  0
  2 16  1  0  0  0  0
  3 17  1  0  0  0  0
 19 20  1  0  0  0  0
  4 19  1  0  0  0  0
 21 22  1  0  0  0  0
 21 23  1  0  0  0  0
 21 24  1  0  0  0  0
 24 25  2  0  0  0  0
  8 21  1  0  0  0  0
  7 26  1  0  0  0  0
M  END
> <score_Kier2>
0.516495

$$$$
suggested molecule #358
 MOE2019            2D

 26 28  0  0  0  0  0  0  0  0999 V2000
    3.4992   -1.2833    0.0000 C   0  0  0  0  0  0  0  0  0  1  0  0
    4.9992   -1.2762    0.0000 C   0  0  0  0  0  0  0  0  0  2  0  0
    5.7430    0.0263    0.0000 C   0  0  0  0  0  0  0  0  0  3  0  0
    4.9869    1.3218    0.0000 C   0  0  0  0  0  0  0  0  0  4  0  0
    3.4870    1.3147    0.0000 C   0  0  0  0  0  0  0  0  0  5  0  0
    2.7431    0.0122    0.0000 C   0  0  0  0  0  0  0  0  0  6  0  0
    1.2431    0.0051    0.0000 C   0  0  0  0  0  0  0  0  0  7  0  0
    0.4870    1.3006    0.0000 C   0  0  0  0  0  0  0  0  0  8  0  0
    1.2309    2.6032    0.0000 C   0  0  0  0  0  0  0  0  0  9  0  0
    0.4748    3.8987    0.0000 O   0  0  0  0  0  0  0  0  0 10  0  0
    2.7309    2.6102    0.0000 O   0  0  0  0  0  0  0  0  0 11  0  0
    2.9041   -2.3253    0.0000 H   0  0  0  0  0  0  0  0  0  0  0  0
    9.2946   -0.5060    0.0000 C   0  0  0  0  0  0  0  0  0  0  0  0
    7.9991   -1.2621    0.0000 C   0  0  0  0  0  0  0  0  0  0  0  0
    7.2552   -2.5647    0.0000 C   0  0  0  0  0  0  0  0  0  0  0  0
    5.7553   -2.5717    0.0000 C   0  0  0  0  0  0  0  0  0  0  0  0
    7.2430    0.0334    0.0000 O   0  0  0  0  0  0  0  0  0  0  0  0
    9.3017   -2.0060    0.0000 C   0  0  0  0  0  0  0  0  0  0  0  0
    5.7308    2.6244    0.0000 O   0  0  0  0  0  0  0  0  0  0  0  0
    4.9747    3.9198    0.0000 C   0  0  0  0  0  0  0  0  0  0  0  0
   -1.0130    1.2936    0.0000 C   0  0  0  0  0  0  0  0  0  0  0  0
   -1.0200    2.7936    0.0000 C   0  0  0  0  0  0  0  0  0  0  0  0
   -1.0059   -0.2064    0.0000 C   0  0  0  0  0  0  0  0  0  0  0  0
   -2.5130    1.2865    0.0000 C   0  0  0  0  0  0  0  0  0  0  0  0
   -3.2569   -0.0160    0.0000 C   0  0  0  0  0  0  0  0  0  0  0  0
    0.6480   -1.0369    0.0000 H   0  0  0  0  0  0  0  0  0  0  0  0
  1  2  1  0  0  0  0
  1  6  2  0  0  0  0
  2  3  2  0  0  0  0
  3  4  1  0  0  0  0
  4  5  2  0  0  0  0
  5  6  1  0  0  0  0
  5 11  1  0  0  0  0
  6  7  1  0  0  0  0
  7  8  2  0  0  0  0
  8  9  1  0  0  0  0
  9 10  2  0  0  0  0
  9 11  1  0  0  0  0
  1 12  1  0  0  0  0
 13 14  1  0  0  0  0
 14 15  1  0  0  0  0
 14 17  1  0  0  0  0
 14 18  1  0  0  0  0
 15 16  2  0  0  0  0
  2 16  1  0  0  0  0
  3 17  1  0  0  0  0
 19 20  1  0  0  0  0
  4 19  1  0  0  0  0
 21 22  1  0  0  0  0
 21 23  1  0  0  0  0
 21 24  1  0  0  0  0
 24 25  2  0  0  0  0
  8 21  1  0  0  0  0
  7 26  1  0  0  0  0
M  END
> <score_Kier3>
0.511471

$$$$
suggested molecule #359
 MOE2019            2D

 26 28  0  0  0  0  0  0  0  0999 V2000
    3.4992   -1.2833    0.0000 C   0  0  0  0  0  0  0  0  0  1  0  0
    4.9992   -1.2762    0.0000 C   0  0  0  0  0  0  0  0  0  2  0  0
    5.7430    0.0263    0.0000 C   0  0  0  0  0  0  0  0  0  3  0  0
    4.9869    1.3218    0.0000 C   0  0  0  0  0  0  0  0  0  4  0  0
    3.4870    1.3147    0.0000 C   0  0  0  0  0  0  0  0  0  5  0  0
    2.7431    0.0122    0.0000 C   0  0  0  0  0  0  0  0  0  6  0  0
    1.2431    0.0051    0.0000 C   0  0  0  0  0  0  0  0  0  7  0  0
    0.4870    1.3006    0.0000 C   0  0  0  0  0  0  0  0  0  8  0  0
    1.2309    2.6032    0.0000 C   0  0  0  0  0  0  0  0  0  9  0  0
    0.4748    3.8987    0.0000 O   0  0  0  0  0  0  0  0  0 10  0  0
    2.7309    2.6102    0.0000 O   0  0  0  0  0  0  0  0  0 11  0  0
    2.9041   -2.3253    0.0000 H   0  0  0  0  0  0  0  0  0  0  0  0
    9.2946   -0.5060    0.0000 C   0  0  0  0  0  0  0  0  0  0  0  0
    7.9991   -1.2621    0.0000 C   0  0  0  0  0  0  0  0  0  0  0  0
    7.2552   -2.5647    0.0000 C   0  0  0  0  0  0  0  0  0  0  0  0
    5.7553   -2.5717    0.0000 C   0  0  0  0  0  0  0  0  0  0  0  0
    7.2430    0.0334    0.0000 O   0  0  0  0  0  0  0  0  0  0  0  0
    9.3017   -2.0060    0.0000 C   0  0  0  0  0  0  0  0  0  0  0  0
    5.7308    2.6244    0.0000 O   0  0  0  0  0  0  0  0  0  0  0  0
    4.9747    3.9198    0.0000 C   0  0  0  0  0  0  0  0  0  0  0  0
   -1.0130    1.2936    0.0000 C   0  0  0  0  0  0  0  0  0  0  0  0
   -1.0200    2.7936    0.0000 C   0  0  0  0  0  0  0  0  0  0  0  0
   -1.0059   -0.2064    0.0000 C   0  0  0  0  0  0  0  0  0  0  0  0
   -2.5130    1.2865    0.0000 C   0  0  0  0  0  0  0  0  0  0  0  0
   -3.2569   -0.0160    0.0000 C   0  0  0  0  0  0  0  0  0  0  0  0
    0.6480   -1.0369    0.0000 H   0  0  0  0  0  0  0  0  0  0  0  0
  1  2  1  0  0  0  0
  1  6  2  0  0  0  0
  2  3  2  0  0  0  0
  3  4  1  0  0  0  0
  4  5  2  0  0  0  0
  5  6  1  0  0  0  0
  5 11  1  0  0  0  0
  6  7  1  0  0  0  0
  7  8  2  0  0  0  0
  8  9  1  0  0  0  0
  9 10  2  0  0  0  0
  9 11  1  0  0  0  0
  1 12  1  0  0  0  0
 13 14  1  0  0  0  0
 14 15  1  0  0  0  0
 14 17  1  0  0  0  0
 14 18  1  0  0  0  0
 15 16  2  0  0  0  0
  2 16  1  0  0  0  0
  3 17  1  0  0  0  0
 19 20  1  0  0  0  0
  4 19  1  0  0  0  0
 21 22  1  0  0  0  0
 21 23  1  0  0  0  0
 21 24  1  0  0  0  0
 24 25  2  0  0  0  0
  8 21  1  0  0  0  0
  7 26  1  0  0  0  0
M  END
> <score_KierA1>
0.517622

$$$$
suggested molecule #360
 MOE2019            2D

 26 28  0  0  0  0  0  0  0  0999 V2000
    3.4992   -1.2833    0.0000 C   0  0  0  0  0  0  0  0  0  1  0  0
    4.9992   -1.2762    0.0000 C   0  0  0  0  0  0  0  0  0  2  0  0
    5.7430    0.0263    0.0000 C   0  0  0  0  0  0  0  0  0  3  0  0
    4.9869    1.3218    0.0000 C   0  0  0  0  0  0  0  0  0  4  0  0
    3.4870    1.3147    0.0000 C   0  0  0  0  0  0  0  0  0  5  0  0
    2.7431    0.0122    0.0000 C   0  0  0  0  0  0  0  0  0  6  0  0
    1.2431    0.0051    0.0000 C   0  0  0  0  0  0  0  0  0  7  0  0
    0.4870    1.3006    0.0000 C   0  0  0  0  0  0  0  0  0  8  0  0
    1.2309    2.6032    0.0000 C   0  0  0  0  0  0  0  0  0  9  0  0
    0.4748    3.8987    0.0000 O   0  0  0  0  0  0  0  0  0 10  0  0
    2.7309    2.6102    0.0000 O   0  0  0  0  0  0  0  0  0 11  0  0
    2.9041   -2.3253    0.0000 H   0  0  0  0  0  0  0  0  0  0  0  0
    9.2946   -0.5060    0.0000 C   0  0  0  0  0  0  0  0  0  0  0  0
    7.9991   -1.2621    0.0000 C   0  0  0  0  0  0  0  0  0  0  0  0
    7.2552   -2.5647    0.0000 C   0  0  0  0  0  0  0  0  0  0  0  0
    5.7553   -2.5717    0.0000 C   0  0  0  0  0  0  0  0  0  0  0  0
    7.2430    0.0334    0.0000 O   0  0  0  0  0  0  0  0  0  0  0  0
    9.3017   -2.0060    0.0000 C   0  0  0  0  0  0  0  0  0  0  0  0
    5.7308    2.6244    0.0000 O   0  0  0  0  0  0  0  0  0  0  0  0
    4.9747    3.9198    0.0000 C   0  0  0  0  0  0  0  0  0  0  0  0
   -1.0130    1.2936    0.0000 C   0  0  0  0  0  0  0  0  0  0  0  0
   -1.0200    2.7936    0.0000 C   0  0  0  0  0  0  0  0  0  0  0  0
   -1.0059   -0.2064    0.0000 C   0  0  0  0  0  0  0  0  0  0  0  0
   -2.5130    1.2865    0.0000 C   0  0  0  0  0  0  0  0  0  0  0  0
   -3.2569   -0.0160    0.0000 C   0  0  0  0  0  0  0  0  0  0  0  0
    0.6480   -1.0369    0.0000 H   0  0  0  0  0  0  0  0  0  0  0  0
  1  2  1  0  0  0  0
  1  6  2  0  0  0  0
  2  3  2  0  0  0  0
  3  4  1  0  0  0  0
  4  5  2  0  0  0  0
  5  6  1  0  0  0  0
  5 11  1  0  0  0  0
  6  7  1  0  0  0  0
  7  8  2  0  0  0  0
  8  9  1  0  0  0  0
  9 10  2  0  0  0  0
  9 11  1  0  0  0  0
  1 12  1  0  0  0  0
 13 14  1  0  0  0  0
 14 15  1  0  0  0  0
 14 17  1  0  0  0  0
 14 18  1  0  0  0  0
 15 16  2  0  0  0  0
  2 16  1  0  0  0  0
  3 17  1  0  0  0  0
 19 20  1  0  0  0  0
  4 19  1  0  0  0  0
 21 22  1  0  0  0  0
 21 23  1  0  0  0  0
 21 24  1  0  0  0  0
 24 25  2  0  0  0  0
  8 21  1  0  0  0  0
  7 26  1  0  0  0  0
M  END
> <score_KierA2>
0.516757

$$$$
suggested molecule #361
 MOE2019            2D

 26 28  0  0  0  0  0  0  0  0999 V2000
    3.4992   -1.2833    0.0000 C   0  0  0  0  0  0  0  0  0  1  0  0
    4.9992   -1.2762    0.0000 C   0  0  0  0  0  0  0  0  0  2  0  0
    5.7430    0.0263    0.0000 C   0  0  0  0  0  0  0  0  0  3  0  0
    4.9869    1.3218    0.0000 C   0  0  0  0  0  0  0  0  0  4  0  0
    3.4870    1.3147    0.0000 C   0  0  0  0  0  0  0  0  0  5  0  0
    2.7431    0.0122    0.0000 C   0  0  0  0  0  0  0  0  0  6  0  0
    1.2431    0.0051    0.0000 C   0  0  0  0  0  0  0  0  0  7  0  0
    0.4870    1.3006    0.0000 C   0  0  0  0  0  0  0  0  0  8  0  0
    1.2309    2.6032    0.0000 C   0  0  0  0  0  0  0  0  0  9  0  0
    0.4748    3.8987    0.0000 O   0  0  0  0  0  0  0  0  0 10  0  0
    2.7309    2.6102    0.0000 O   0  0  0  0  0  0  0  0  0 11  0  0
    2.9041   -2.3253    0.0000 H   0  0  0  0  0  0  0  0  0  0  0  0
    9.2946   -0.5060    0.0000 C   0  0  0  0  0  0  0  0  0  0  0  0
    7.9991   -1.2621    0.0000 C   0  0  0  0  0  0  0  0  0  0  0  0
    7.2552   -2.5647    0.0000 C   0  0  0  0  0  0  0  0  0  0  0  0
    5.7553   -2.5717    0.0000 C   0  0  0  0  0  0  0  0  0  0  0  0
    7.2430    0.0334    0.0000 O   0  0  0  0  0  0  0  0  0  0  0  0
    9.3017   -2.0060    0.0000 C   0  0  0  0  0  0  0  0  0  0  0  0
    5.7308    2.6244    0.0000 O   0  0  0  0  0  0  0  0  0  0  0  0
    4.9747    3.9198    0.0000 C   0  0  0  0  0  0  0  0  0  0  0  0
   -1.0130    1.2936    0.0000 C   0  0  0  0  0  0  0  0  0  0  0  0
   -1.0200    2.7936    0.0000 C   0  0  0  0  0  0  0  0  0  0  0  0
   -1.0059   -0.2064    0.0000 C   0  0  0  0  0  0  0  0  0  0  0  0
   -2.5130    1.2865    0.0000 C   0  0  0  0  0  0  0  0  0  0  0  0
   -3.2569   -0.0160    0.0000 C   0  0  0  0  0  0  0  0  0  0  0  0
    0.6480   -1.0369    0.0000 H   0  0  0  0  0  0  0  0  0  0  0  0
  1  2  1  0  0  0  0
  1  6  2  0  0  0  0
  2  3  2  0  0  0  0
  3  4  1  0  0  0  0
  4  5  2  0  0  0  0
  5  6  1  0  0  0  0
  5 11  1  0  0  0  0
  6  7  1  0  0  0  0
  7  8  2  0  0  0  0
  8  9  1  0  0  0  0
  9 10  2  0  0  0  0
  9 11  1  0  0  0  0
  1 12  1  0  0  0  0
 13 14  1  0  0  0  0
 14 15  1  0  0  0  0
 14 17  1  0  0  0  0
 14 18  1  0  0  0  0
 15 16  2  0  0  0  0
  2 16  1  0  0  0  0
  3 17  1  0  0  0  0
 19 20  1  0  0  0  0
  4 19  1  0  0  0  0
 21 22  1  0  0  0  0
 21 23  1  0  0  0  0
 21 24  1  0  0  0  0
 24 25  2  0  0  0  0
  8 21  1  0  0  0  0
  7 26  1  0  0  0  0
M  END
> <score_KierFlex>
0.516314

$$$$
suggested molecule #362
 MOE2019            2D

 26 28  0  0  0  0  0  0  0  0999 V2000
    3.4992   -1.2833    0.0000 C   0  0  0  0  0  0  0  0  0  1  0  0
    4.9992   -1.2762    0.0000 C   0  0  0  0  0  0  0  0  0  2  0  0
    5.7430    0.0263    0.0000 C   0  0  0  0  0  0  0  0  0  3  0  0
    4.9869    1.3218    0.0000 C   0  0  0  0  0  0  0  0  0  4  0  0
    3.4870    1.3147    0.0000 C   0  0  0  0  0  0  0  0  0  5  0  0
    2.7431    0.0122    0.0000 C   0  0  0  0  0  0  0  0  0  6  0  0
    1.2431    0.0051    0.0000 C   0  0  0  0  0  0  0  0  0  7  0  0
    0.4870    1.3006    0.0000 C   0  0  0  0  0  0  0  0  0  8  0  0
    1.2309    2.6032    0.0000 C   0  0  0  0  0  0  0  0  0  9  0  0
    0.4748    3.8987    0.0000 O   0  0  0  0  0  0  0  0  0 10  0  0
    2.7309    2.6102    0.0000 O   0  0  0  0  0  0  0  0  0 11  0  0
    2.9041   -2.3253    0.0000 H   0  0  0  0  0  0  0  0  0  0  0  0
    9.3017   -2.0060    0.0000 C   0  0  0  0  0  0  0  0  0  0  0  0
    7.9991   -1.2621    0.0000 C   0  0  0  0  0  0  0  0  0  0  0  0
    7.2552   -2.5647    0.0000 C   0  0  0  0  0  0  0  0  0  0  0  0
    5.7553   -2.5717    0.0000 C   0  0  0  0  0  0  0  0  0  0  0  0
    7.2430    0.0334    0.0000 O   0  0  0  0  0  0  0  0  0  0  0  0
    9.2946   -0.5060    0.0000 C   0  0  0  0  0  0  0  0  0  0  0  0
    5.7308    2.6244    0.0000 O   0  0  0  0  0  0  0  0  0  0  0  0
    4.9747    3.9198    0.0000 C   0  0  0  0  0  0  0  0  0  0  0  0
   -1.0130    1.2936    0.0000 C   0  0  0  0  0  0  0  0  0  0  0  0
   -1.7569   -0.0090    0.0000 C   0  0  0  0  0  0  0  0  0  0  0  0
   -3.2569   -0.0160    0.0000 C   0  0  0  0  0  0  0  0  0  0  0  0
   -4.0007   -1.3186    0.0000 C   0  0  0  0  0  0  0  0  0  0  0  0
   -4.0130    1.2795    0.0000 C   0  0  0  0  0  0  0  0  0  0  0  0
    0.6480   -1.0369    0.0000 H   0  0  0  0  0  0  0  0  0  0  0  0
  1  2  2  0  0  0  0
  1  6  1  0  0  0  0
  2  3  1  0  0  0  0
  3  4  2  0  0  0  0
  4  5  1  0  0  0  0
  5  6  2  0  0  0  0
  5 11  1  0  0  0  0
  6  7  1  0  0  0  0
  7  8  2  0  0  0  0
  8  9  1  0  0  0  0
  9 10  2  0  0  0  0
  9 11  1  0  0  0  0
  1 12  1  0  0  0  0
 13 14  1  0  0  0  0
 14 15  1  0  0  0  0
 14 17  1  0  0  0  0
 14 18  1  0  0  0  0
 15 16  2  0  0  0  0
  2 16  1  0  0  0  0
  3 17  1  0  0  0  0
 19 20  1  0  0  0  0
  4 19  1  0  0  0  0
 21 22  1  0  0  0  0
 22 23  2  0  0  0  0
 23 24  1  0  0  0  0
 23 25  1  0  0  0  0
  8 21  1  0  0  0  0
  7 26  1  0  0  0  0
M  END
> <score_KierA1>
0.517598

$$$$
suggested molecule #363
 MOE2019            2D

 26 28  0  0  0  0  0  0  0  0999 V2000
    3.4992   -1.2833    0.0000 C   0  0  0  0  0  0  0  0  0  1  0  0
    4.9992   -1.2762    0.0000 C   0  0  0  0  0  0  0  0  0  2  0  0
    5.7430    0.0263    0.0000 C   0  0  0  0  0  0  0  0  0  3  0  0
    4.9869    1.3218    0.0000 C   0  0  0  0  0  0  0  0  0  4  0  0
    3.4870    1.3147    0.0000 C   0  0  0  0  0  0  0  0  0  5  0  0
    2.7431    0.0122    0.0000 C   0  0  0  0  0  0  0  0  0  6  0  0
    1.2431    0.0051    0.0000 C   0  0  0  0  0  0  0  0  0  7  0  0
    0.4870    1.3006    0.0000 C   0  0  0  0  0  0  0  0  0  8  0  0
    1.2309    2.6032    0.0000 C   0  0  0  0  0  0  0  0  0  9  0  0
    0.4748    3.8987    0.0000 O   0  0  0  0  0  0  0  0  0 10  0  0
    2.7309    2.6102    0.0000 O   0  0  0  0  0  0  0  0  0 11  0  0
    2.9041   -2.3253    0.0000 H   0  0  0  0  0  0  0  0  0  0  0  0
    9.3017   -2.0060    0.0000 C   0  0  0  0  0  0  0  0  0  0  0  0
    7.9991   -1.2621    0.0000 C   0  0  0  0  0  0  0  0  0  0  0  0
    7.2552   -2.5647    0.0000 C   0  0  0  0  0  0  0  0  0  0  0  0
    5.7553   -2.5717    0.0000 C   0  0  0  0  0  0  0  0  0  0  0  0
    7.2430    0.0334    0.0000 O   0  0  0  0  0  0  0  0  0  0  0  0
    9.2946   -0.5060    0.0000 C   0  0  0  0  0  0  0  0  0  0  0  0
    5.7308    2.6244    0.0000 O   0  0  0  0  0  0  0  0  0  0  0  0
    4.9747    3.9198    0.0000 C   0  0  0  0  0  0  0  0  0  0  0  0
   -1.0130    1.2936    0.0000 C   0  0  0  0  0  0  0  0  0  0  0  0
   -1.7569   -0.0090    0.0000 C   0  0  0  0  0  0  0  0  0  0  0  0
   -3.2569   -0.0160    0.0000 C   0  0  0  0  0  0  0  0  0  0  0  0
   -4.0007   -1.3186    0.0000 C   0  0  0  0  0  0  0  0  0  0  0  0
   -4.0130    1.2795    0.0000 C   0  0  0  0  0  0  0  0  0  0  0  0
    0.6480   -1.0369    0.0000 H   0  0  0  0  0  0  0  0  0  0  0  0
  1  2  2  0  0  0  0
  1  6  1  0  0  0  0
  2  3  1  0  0  0  0
  3  4  2  0  0  0  0
  4  5  1  0  0  0  0
  5  6  2  0  0  0  0
  5 11  1  0  0  0  0
  6  7  1  0  0  0  0
  7  8  2  0  0  0  0
  8  9  1  0  0  0  0
  9 10  2  0  0  0  0
  9 11  1  0  0  0  0
  1 12  1  0  0  0  0
 13 14  1  0  0  0  0
 14 15  1  0  0  0  0
 14 17  1  0  0  0  0
 14 18  1  0  0  0  0
 15 16  2  0  0  0  0
  2 16  1  0  0  0  0
  3 17  1  0  0  0  0
 19 20  1  0  0  0  0
  4 19  1  0  0  0  0
 21 22  1  0  0  0  0
 22 23  2  0  0  0  0
 23 24  1  0  0  0  0
 23 25  1  0  0  0  0
  8 21  1  0  0  0  0
  7 26  1  0  0  0  0
M  END
> <score_KierFlex>
0.51626

$$$$
suggested molecule #364
 MOE2019            2D

 35 39  0  0  0  0  0  0  0  0999 V2000
    3.4992   -1.2833    0.0000 C   0  0  0  0  0  0  0  0  0  1  0  0
    4.9992   -1.2762    0.0000 C   0  0  0  0  0  0  0  0  0  2  0  0
    5.7430    0.0263    0.0000 C   0  0  0  0  0  0  0  0  0  3  0  0
    4.9869    1.3218    0.0000 C   0  0  0  0  0  0  0  0  0  4  0  0
    3.4870    1.3147    0.0000 C   0  0  0  0  0  0  0  0  0  5  0  0
    2.7431    0.0122    0.0000 C   0  0  0  0  0  0  0  0  0  6  0  0
    1.2431    0.0051    0.0000 C   0  0  0  0  0  0  0  0  0  7  0  0
    0.4870    1.3006    0.0000 C   0  0  0  0  0  0  0  0  0  8  0  0
    1.2309    2.6032    0.0000 C   0  0  0  0  0  0  0  0  0  9  0  0
    0.4748    3.8987    0.0000 O   0  0  0  0  0  0  0  0  0 10  0  0
    2.7309    2.6102    0.0000 O   0  0  0  0  0  0  0  0  0 11  0  0
    2.9041   -2.3253    0.0000 H   0  0  0  0  0  0  0  0  0  0  0  0
    9.3017   -2.0060    0.0000 C   0  0  0  0  0  0  0  0  0  0  0  0
    7.9991   -1.2621    0.0000 C   0  0  0  0  0  0  0  0  0  0  0  0
    7.2552   -2.5647    0.0000 C   0  0  0  0  0  0  0  0  0  0  0  0
    5.7553   -2.5717    0.0000 C   0  0  0  0  0  0  0  0  0  0  0  0
    7.2430    0.0334    0.0000 O   0  0  0  0  0  0  0  0  0  0  0  0
    9.2946   -0.5060    0.0000 C   0  0  0  0  0  0  0  0  0  0  0  0
    5.7308    2.6244    0.0000 O   0  0  0  0  0  0  0  0  0  0  0  0
    7.2308    2.6314    0.0000 C   0  0  0  0  0  0  0  0  0  0  0  0
   -1.0130    1.2936    0.0000 C   0  0  0  0  0  0  0  0  0  0  0  0
   -1.7569   -0.0090    0.0000 C   0  0  0  0  0  0  0  0  0  0  0  0
   -3.2569   -0.0160    0.0000 C   0  0  0  0  0  0  0  0  0  0  0  0
   -4.0130    1.2795    0.0000 C   0  0  0  0  0  0  0  0  0  0  0  0
   -3.2691    2.5820    0.0000 C   0  0  0  0  0  0  0  0  0  0  0  0
   -1.7691    2.5891    0.0000 C   0  0  0  0  0  0  0  0  0  0  0  0
   -5.5129    1.2724    0.0000 O   0  0  0  0  0  0  0  0  0  0  0  0
   -6.2568   -0.0301    0.0000 C   0  0  0  0  0  0  0  0  0  0  0  0
   -5.5007   -1.3256    0.0000 C   0  0  0  0  0  0  0  0  0  0  0  0
   -4.0007   -1.3186    0.0000 C   0  0  0  0  0  0  0  0  0  0  0  0
   -7.5523   -0.7862    0.0000 C   0  0  0  0  0  0  0  0  0  0  0  0
   -7.5594    0.7138    0.0000 C   0  0  0  0  0  0  0  0  0  0  0  0
   -1.0008   -1.3045    0.0000 O   0  0  0  0  0  0  0  0  0  0  0  0
   -1.7447   -2.6070    0.0000 C   0  0  0  0  0  0  0  0  0  0  0  0
    0.6480   -1.0369    0.0000 H   0  0  0  0  0  0  0  0  0  0  0  0
  1  2  1  0  0  0  0
  1  6  2  0  0  0  0
  2  3  2  0  0  0  0
  3  4  1  0  0  0  0
  4  5  2  0  0  0  0
  5  6  1  0  0  0  0
  5 11  1  0  0  0  0
  6  7  1  0  0  0  0
  7  8  2  0  0  0  0
  8  9  1  0  0  0  0
  9 10  2  0  0  0  0
  9 11  1  0  0  0  0
  1 12  1  0  0  0  0
 13 14  1  0  0  0  0
 14 15  1  0  0  0  0
 14 17  1  0  0  0  0
 14 18  1  0  0  0  0
 15 16  2  0  0  0  0
  2 16  1  0  0  0  0
  3 17  1  0  0  0  0
 19 20  1  0  0  0  0
  4 19  1  0  0  0  0
 21 22  1  0  0  0  0
 21 26  2  0  0  0  0
 22 23  2  0  0  0  0
 22 33  1  0  0  0  0
 23 24  1  0  0  0  0
 23 30  1  0  0  0  0
 24 25  2  0  0  0  0
 24 27  1  0  0  0  0
 25 26  1  0  0  0  0
 27 28  1  0  0  0  0
 28 29  1  0  0  0  0
 28 31  1  0  0  0  0
 28 32  1  0  0  0  0
 29 30  2  0  0  0  0
 33 34  1  0  0  0  0
  8 21  1  0  0  0  0
  7 35  1  0  0  0  0
M  END
> <score_KierFlex>
0.516262

$$$$
suggested molecule #365
 MOE2019            2D

 38 41  0  0  0  0  0  0  0  0999 V2000
    3.4992   -1.2833    0.0000 C   0  0  0  0  0  0  0  0  0  1  0  0
    4.9992   -1.2762    0.0000 C   0  0  0  0  0  0  0  0  0  2  0  0
    5.7430    0.0263    0.0000 C   0  0  0  0  0  0  0  0  0  3  0  0
    4.9869    1.3218    0.0000 C   0  0  0  0  0  0  0  0  0  4  0  0
    3.4870    1.3147    0.0000 C   0  0  0  0  0  0  0  0  0  5  0  0
    2.7431    0.0122    0.0000 C   0  0  0  0  0  0  0  0  0  6  0  0
    1.2431    0.0051    0.0000 C   0  0  0  0  0  0  0  0  0  7  0  0
    0.4870    1.3006    0.0000 C   0  0  0  0  0  0  0  0  0  8  0  0
    1.2309    2.6032    0.0000 C   0  0  0  0  0  0  0  0  0  9  0  0
    0.4748    3.8987    0.0000 O   0  0  0  0  0  0  0  0  0 10  0  0
    2.7309    2.6102    0.0000 O   0  0  0  0  0  0  0  0  0 11  0  0
    2.9041   -2.3253    0.0000 H   0  0  0  0  0  0  0  0  0  0  0  0
    9.2946   -0.5060    0.0000 C   0  0  0  0  0  0  0  0  0  0  0  0
    7.9991   -1.2621    0.0000 C   0  0  0  0  0  0  0  0  0  0  0  0
    7.2552   -2.5647    0.0000 C   0  0  0  0  0  0  0  0  0  0  0  0
    5.7553   -2.5717    0.0000 C   0  0  0  0  0  0  0  0  0  0  0  0
    7.2430    0.0334    0.0000 O   0  0  0  0  0  0  0  0  0  0  0  0
    9.3017   -2.0060    0.0000 C   0  0  0  0  0  0  0  0  0  0  0  0
    5.7308    2.6244    0.0000 O   0  0  0  0  0  0  0  0  0  0  0  0
    7.2308    2.6314    0.0000 C   0  0  0  0  0  0  0  0  0  0  0  0
  -12.2934    7.7358    0.0000 C   0  0  0  0  0  0  0  0  0  0  0  0
  -10.7934    7.7428    0.0000 C   0  0  0  0  0  0  0  0  0  0  0  0
  -10.0373    6.4473    0.0000 C   0  0  0  0  0  0  0  0  0  0  0  0
   -8.5374    6.4544    0.0000 C   0  0  0  0  0  0  0  0  0  0  0  0
   -7.7812    5.1589    0.0000 C   0  0  0  0  0  0  0  0  0  0  0  0
   -6.2813    5.1660    0.0000 C   0  0  0  0  0  0  0  0  0  0  0  0
   -5.5252    3.8705    0.0000 C   0  0  0  0  0  0  0  0  0  0  0  0
   -4.0252    3.8775    0.0000 C   0  0  0  0  0  0  0  0  0  0  0  0
   -3.2691    2.5820    0.0000 C   0  0  0  0  0  0  0  0  0  0  0  0
   -4.0130    1.2795    0.0000 C   0  0  0  0  0  0  0  0  0  0  0  0
   -3.2569   -0.0160    0.0000 C   0  0  0  0  0  0  0  0  0  0  0  0
   -1.7569   -0.0090    0.0000 C   0  0  0  0  0  0  0  0  0  0  0  0
   -1.0130    1.2936    0.0000 C   0  0  0  0  0  0  0  0  0  0  0  0
   -1.7691    2.5891    0.0000 C   0  0  0  0  0  0  0  0  0  0  0  0
   -5.5129    1.2724    0.0000 O   0  0  0  0  0  0  0  0  0  0  0  0
   -5.5374    6.4685    0.0000 C   0  0  0  0  0  0  0  0  0  0  0  0
  -10.0496    9.0454    0.0000 C   0  0  0  0  0  0  0  0  0  0  0  0
    0.6480   -1.0369    0.0000 H   0  0  0  0  0  0  0  0  0  0  0  0
  1  2  2  0  0  0  0
  1  6  1  0  0  0  0
  2  3  1  0  0  0  0
  3  4  2  0  0  0  0
  4  5  1  0  0  0  0
  5  6  2  0  0  0  0
  5 11  1  0  0  0  0
  6  7  1  0  0  0  0
  7  8  2  0  0  0  0
  8  9  1  0  0  0  0
  9 10  2  0  0  0  0
  9 11  1  0  0  0  0
  1 12  1  0  0  0  0
 13 14  1  0  0  0  0
 14 15  1  0  0  0  0
 14 17  1  0  0  0  0
 14 18  1  0  0  0  0
 15 16  2  0  0  0  0
  2 16  1  0  0  0  0
  3 17  1  0  0  0  0
 19 20  1  0  0  0  0
  4 19  1  0  0  0  0
 21 22  1  0  0  0  0
 22 23  2  0  0  0  0
 22 37  1  0  0  0  0
 23 24  1  0  0  0  0
 24 25  1  0  0  0  0
 25 26  1  0  0  0  0
 26 27  2  0  0  0  0
 26 36  1  0  0  0  0
 27 28  1  0  0  0  0
 28 29  1  0  0  0  0
 29 30  1  0  0  0  0
 29 34  2  0  0  0  0
 30 31  2  0  0  0  0
 30 35  1  0  0  0  0
 31 32  1  0  0  0  0
 32 33  2  0  0  0  0
 33 34  1  0  0  0  0
  8 33  1  0  0  0  0
  7 38  1  0  0  0  0
M  END
> <score_Kier1>
0.517691

$$$$
suggested molecule #366
 MOE2019            2D

 38 41  0  0  0  0  0  0  0  0999 V2000
    3.4992   -1.2833    0.0000 C   0  0  0  0  0  0  0  0  0  1  0  0
    4.9992   -1.2762    0.0000 C   0  0  0  0  0  0  0  0  0  2  0  0
    5.7430    0.0263    0.0000 C   0  0  0  0  0  0  0  0  0  3  0  0
    4.9869    1.3218    0.0000 C   0  0  0  0  0  0  0  0  0  4  0  0
    3.4870    1.3147    0.0000 C   0  0  0  0  0  0  0  0  0  5  0  0
    2.7431    0.0122    0.0000 C   0  0  0  0  0  0  0  0  0  6  0  0
    1.2431    0.0051    0.0000 C   0  0  0  0  0  0  0  0  0  7  0  0
    0.4870    1.3006    0.0000 C   0  0  0  0  0  0  0  0  0  8  0  0
    1.2309    2.6032    0.0000 C   0  0  0  0  0  0  0  0  0  9  0  0
    0.4748    3.8987    0.0000 O   0  0  0  0  0  0  0  0  0 10  0  0
    2.7309    2.6102    0.0000 O   0  0  0  0  0  0  0  0  0 11  0  0
    2.9041   -2.3253    0.0000 H   0  0  0  0  0  0  0  0  0  0  0  0
    9.2946   -0.5060    0.0000 C   0  0  0  0  0  0  0  0  0  0  0  0
    7.9991   -1.2621    0.0000 C   0  0  0  0  0  0  0  0  0  0  0  0
    7.2552   -2.5647    0.0000 C   0  0  0  0  0  0  0  0  0  0  0  0
    5.7553   -2.5717    0.0000 C   0  0  0  0  0  0  0  0  0  0  0  0
    7.2430    0.0334    0.0000 O   0  0  0  0  0  0  0  0  0  0  0  0
    9.3017   -2.0060    0.0000 C   0  0  0  0  0  0  0  0  0  0  0  0
    5.7308    2.6244    0.0000 O   0  0  0  0  0  0  0  0  0  0  0  0
    7.2308    2.6314    0.0000 C   0  0  0  0  0  0  0  0  0  0  0  0
  -12.2934    7.7358    0.0000 C   0  0  0  0  0  0  0  0  0  0  0  0
  -10.7934    7.7428    0.0000 C   0  0  0  0  0  0  0  0  0  0  0  0
  -10.0373    6.4473    0.0000 C   0  0  0  0  0  0  0  0  0  0  0  0
   -8.5374    6.4544    0.0000 C   0  0  0  0  0  0  0  0  0  0  0  0
   -7.7812    5.1589    0.0000 C   0  0  0  0  0  0  0  0  0  0  0  0
   -6.2813    5.1660    0.0000 C   0  0  0  0  0  0  0  0  0  0  0  0
   -5.5252    3.8705    0.0000 C   0  0  0  0  0  0  0  0  0  0  0  0
   -4.0252    3.8775    0.0000 C   0  0  0  0  0  0  0  0  0  0  0  0
   -3.2691    2.5820    0.0000 C   0  0  0  0  0  0  0  0  0  0  0  0
   -4.0130    1.2795    0.0000 C   0  0  0  0  0  0  0  0  0  0  0  0
   -3.2569   -0.0160    0.0000 C   0  0  0  0  0  0  0  0  0  0  0  0
   -1.7569   -0.0090    0.0000 C   0  0  0  0  0  0  0  0  0  0  0  0
   -1.0130    1.2936    0.0000 C   0  0  0  0  0  0  0  0  0  0  0  0
   -1.7691    2.5891    0.0000 C   0  0  0  0  0  0  0  0  0  0  0  0
   -5.5129    1.2724    0.0000 O   0  0  0  0  0  0  0  0  0  0  0  0
   -5.5374    6.4685    0.0000 C   0  0  0  0  0  0  0  0  0  0  0  0
  -10.0496    9.0454    0.0000 C   0  0  0  0  0  0  0  0  0  0  0  0
    0.6480   -1.0369    0.0000 H   0  0  0  0  0  0  0  0  0  0  0  0
  1  2  2  0  0  0  0
  1  6  1  0  0  0  0
  2  3  1  0  0  0  0
  3  4  2  0  0  0  0
  4  5  1  0  0  0  0
  5  6  2  0  0  0  0
  5 11  1  0  0  0  0
  6  7  1  0  0  0  0
  7  8  2  0  0  0  0
  8  9  1  0  0  0  0
  9 10  2  0  0  0  0
  9 11  1  0  0  0  0
  1 12  1  0  0  0  0
 13 14  1  0  0  0  0
 14 15  1  0  0  0  0
 14 17  1  0  0  0  0
 14 18  1  0  0  0  0
 15 16  2  0  0  0  0
  2 16  1  0  0  0  0
  3 17  1  0  0  0  0
 19 20  1  0  0  0  0
  4 19  1  0  0  0  0
 21 22  1  0  0  0  0
 22 23  2  0  0  0  0
 22 37  1  0  0  0  0
 23 24  1  0  0  0  0
 24 25  1  0  0  0  0
 25 26  1  0  0  0  0
 26 27  2  0  0  0  0
 26 36  1  0  0  0  0
 27 28  1  0  0  0  0
 28 29  1  0  0  0  0
 29 30  1  0  0  0  0
 29 34  2  0  0  0  0
 30 31  2  0  0  0  0
 30 35  1  0  0  0  0
 31 32  1  0  0  0  0
 32 33  2  0  0  0  0
 33 34  1  0  0  0  0
  8 33  1  0  0  0  0
  7 38  1  0  0  0  0
M  END
> <score_KierA1>
0.517611

$$$$
suggested molecule #367
 MOE2019            2D

 38 41  0  0  0  0  0  0  0  0999 V2000
    3.4992   -1.2833    0.0000 C   0  0  0  0  0  0  0  0  0  1  0  0
    4.9992   -1.2762    0.0000 C   0  0  0  0  0  0  0  0  0  2  0  0
    5.7430    0.0263    0.0000 C   0  0  0  0  0  0  0  0  0  3  0  0
    4.9869    1.3218    0.0000 C   0  0  0  0  0  0  0  0  0  4  0  0
    3.4870    1.3147    0.0000 C   0  0  0  0  0  0  0  0  0  5  0  0
    2.7431    0.0122    0.0000 C   0  0  0  0  0  0  0  0  0  6  0  0
    1.2431    0.0051    0.0000 C   0  0  0  0  0  0  0  0  0  7  0  0
    0.4870    1.3006    0.0000 C   0  0  0  0  0  0  0  0  0  8  0  0
    1.2309    2.6032    0.0000 C   0  0  0  0  0  0  0  0  0  9  0  0
    0.4748    3.8987    0.0000 O   0  0  0  0  0  0  0  0  0 10  0  0
    2.7309    2.6102    0.0000 O   0  0  0  0  0  0  0  0  0 11  0  0
    2.9041   -2.3253    0.0000 H   0  0  0  0  0  0  0  0  0  0  0  0
    9.2946   -0.5060    0.0000 C   0  0  0  0  0  0  0  0  0  0  0  0
    7.9991   -1.2621    0.0000 C   0  0  0  0  0  0  0  0  0  0  0  0
    7.2552   -2.5647    0.0000 C   0  0  0  0  0  0  0  0  0  0  0  0
    5.7553   -2.5717    0.0000 C   0  0  0  0  0  0  0  0  0  0  0  0
    7.2430    0.0334    0.0000 O   0  0  0  0  0  0  0  0  0  0  0  0
    9.3017   -2.0060    0.0000 C   0  0  0  0  0  0  0  0  0  0  0  0
    5.7308    2.6244    0.0000 O   0  0  0  0  0  0  0  0  0  0  0  0
    7.2308    2.6314    0.0000 C   0  0  0  0  0  0  0  0  0  0  0  0
  -12.2934    7.7358    0.0000 C   0  0  0  0  0  0  0  0  0  0  0  0
  -10.7934    7.7428    0.0000 C   0  0  0  0  0  0  0  0  0  0  0  0
  -10.0373    6.4473    0.0000 C   0  0  0  0  0  0  0  0  0  0  0  0
   -8.5374    6.4544    0.0000 C   0  0  0  0  0  0  0  0  0  0  0  0
   -7.7812    5.1589    0.0000 C   0  0  0  0  0  0  0  0  0  0  0  0
   -6.2813    5.1660    0.0000 C   0  0  0  0  0  0  0  0  0  0  0  0
   -5.5252    3.8705    0.0000 C   0  0  0  0  0  0  0  0  0  0  0  0
   -4.0252    3.8775    0.0000 C   0  0  0  0  0  0  0  0  0  0  0  0
   -3.2691    2.5820    0.0000 C   0  0  0  0  0  0  0  0  0  0  0  0
   -4.0130    1.2795    0.0000 C   0  0  0  0  0  0  0  0  0  0  0  0
   -3.2569   -0.0160    0.0000 C   0  0  0  0  0  0  0  0  0  0  0  0
   -1.7569   -0.0090    0.0000 C   0  0  0  0  0  0  0  0  0  0  0  0
   -1.0130    1.2936    0.0000 C   0  0  0  0  0  0  0  0  0  0  0  0
   -1.7691    2.5891    0.0000 C   0  0  0  0  0  0  0  0  0  0  0  0
   -5.5129    1.2724    0.0000 O   0  0  0  0  0  0  0  0  0  0  0  0
   -5.5374    6.4685    0.0000 C   0  0  0  0  0  0  0  0  0  0  0  0
  -10.0496    9.0454    0.0000 C   0  0  0  0  0  0  0  0  0  0  0  0
    0.6480   -1.0369    0.0000 H   0  0  0  0  0  0  0  0  0  0  0  0
  1  2  2  0  0  0  0
  1  6  1  0  0  0  0
  2  3  1  0  0  0  0
  3  4  2  0  0  0  0
  4  5  1  0  0  0  0
  5  6  2  0  0  0  0
  5 11  1  0  0  0  0
  6  7  1  0  0  0  0
  7  8  2  0  0  0  0
  8  9  1  0  0  0  0
  9 10  2  0  0  0  0
  9 11  1  0  0  0  0
  1 12  1  0  0  0  0
 13 14  1  0  0  0  0
 14 15  1  0  0  0  0
 14 17  1  0  0  0  0
 14 18  1  0  0  0  0
 15 16  2  0  0  0  0
  2 16  1  0  0  0  0
  3 17  1  0  0  0  0
 19 20  1  0  0  0  0
  4 19  1  0  0  0  0
 21 22  1  0  0  0  0
 22 23  2  0  0  0  0
 22 37  1  0  0  0  0
 23 24  1  0  0  0  0
 24 25  1  0  0  0  0
 25 26  1  0  0  0  0
 26 27  2  0  0  0  0
 26 36  1  0  0  0  0
 27 28  1  0  0  0  0
 28 29  1  0  0  0  0
 29 30  1  0  0  0  0
 29 34  2  0  0  0  0
 30 31  2  0  0  0  0
 30 35  1  0  0  0  0
 31 32  1  0  0  0  0
 32 33  2  0  0  0  0
 33 34  1  0  0  0  0
  8 33  1  0  0  0  0
  7 38  1  0  0  0  0
M  END
> <score_KierFlex>
0.516264

$$$$
suggested molecule #368
 MOE2019            2D

 32 36  0  0  0  0  0  0  0  0999 V2000
    3.4992   -1.2833    0.0000 C   0  0  0  0  0  0  0  0  0  1  0  0
    4.9992   -1.2762    0.0000 C   0  0  0  0  0  0  0  0  0  2  0  0
    5.7430    0.0263    0.0000 C   0  0  0  0  0  0  0  0  0  3  0  0
    4.9869    1.3218    0.0000 C   0  0  0  0  0  0  0  0  0  4  0  0
    3.4870    1.3147    0.0000 C   0  0  0  0  0  0  0  0  0  5  0  0
    2.7431    0.0122    0.0000 C   0  0  0  0  0  0  0  0  0  6  0  0
    1.2431    0.0051    0.0000 C   0  0  0  0  0  0  0  0  0  7  0  0
    0.4870    1.3006    0.0000 C   0  0  0  0  0  0  0  0  0  8  0  0
    1.2309    2.6032    0.0000 C   0  0  0  0  0  0  0  0  0  9  0  0
    0.4748    3.8987    0.0000 O   0  0  0  0  0  0  0  0  0 10  0  0
    2.7309    2.6102    0.0000 O   0  0  0  0  0  0  0  0  0 11  0  0
    2.9041   -2.3253    0.0000 H   0  0  0  0  0  0  0  0  0  0  0  0
    9.3017   -2.0060    0.0000 C   0  0  0  0  0  0  0  0  0  0  0  0
    7.9991   -1.2621    0.0000 C   0  0  0  0  0  0  0  0  0  0  0  0
    7.2552   -2.5647    0.0000 C   0  0  0  0  0  0  0  0  0  0  0  0
    5.7553   -2.5717    0.0000 C   0  0  0  0  0  0  0  0  0  0  0  0
    7.2430    0.0334    0.0000 O   0  0  0  0  0  0  0  0  0  0  0  0
    9.2946   -0.5060    0.0000 C   0  0  0  0  0  0  0  0  0  0  0  0
    5.7308    2.6244    0.0000 O   0  0  0  0  0  0  0  0  0  0  0  0
    7.2308    2.6314    0.0000 C   0  0  0  0  0  0  0  0  0  0  0  0
   -1.0130    1.2936    0.0000 C   0  0  0  0  0  0  0  0  0  0  0  0
   -1.7691    2.5891    0.0000 C   0  0  0  0  0  0  0  0  0  0  0  0
   -3.2691    2.5820    0.0000 C   0  0  0  0  0  0  0  0  0  0  0  0
   -4.0130    1.2795    0.0000 C   0  0  0  0  0  0  0  0  0  0  0  0
   -3.2569   -0.0160    0.0000 C   0  0  0  0  0  0  0  0  0  0  0  0
   -1.7569   -0.0090    0.0000 C   0  0  0  0  0  0  0  0  0  0  0  0
   -1.0008   -1.3045    0.0000 O   0  0  0  0  0  0  0  0  0  0  0  0
    0.4992   -1.2974    0.0000 C   0  0  0  0  0  0  0  0  0  0  0  0
   -5.5129    1.2724    0.0000 O   0  0  0  0  0  0  0  0  0  0  0  0
   -6.2568   -0.0301    0.0000 C   0  0  0  0  0  0  0  0  0  0  0  0
   -4.0252    3.8775    0.0000 O   0  0  0  0  0  0  0  0  0  0  0  0
   -3.2813    5.1801    0.0000 C   0  0  0  0  0  0  0  0  0  0  0  0
  1  2  1  0  0  0  0
  1  6  2  0  0  0  0
  2  3  2  0  0  0  0
  3  4  1  0  0  0  0
  4  5  2  0  0  0  0
  5  6  1  0  0  0  0
  5 11  1  0  0  0  0
  6  7  1  0  0  0  0
  7  8  2  0  0  0  0
  8  9  1  0  0  0  0
  9 10  2  0  0  0  0
  9 11  1  0  0  0  0
  1 12  1  0  0  0  0
 13 14  1  0  0  0  0
 14 15  1  0  0  0  0
 14 17  1  0  0  0  0
 14 18  1  0  0  0  0
 15 16  2  0  0  0  0
  2 16  1  0  0  0  0
  3 17  1  0  0  0  0
 19 20  1  0  0  0  0
  4 19  1  0  0  0  0
 21 22  1  0  0  0  0
 21 26  2  0  0  0  0
 22 23  2  0  0  0  0
 23 24  1  0  0  0  0
 23 31  1  0  0  0  0
 24 25  2  0  0  0  0
 24 29  1  0  0  0  0
 25 26  1  0  0  0  0
 26 27  1  0  0  0  0
 27 28  1  0  0  0  0
 29 30  1  0  0  0  0
 31 32  1  0  0  0  0
  7 28  1  0  0  0  0
  8 21  1  0  0  0  0
M  END
> <score_Kier1>
0.517692

$$$$
suggested molecule #369
 MOE2019            2D

 32 36  0  0  0  0  0  0  0  0999 V2000
    3.4992   -1.2833    0.0000 C   0  0  0  0  0  0  0  0  0  1  0  0
    4.9992   -1.2762    0.0000 C   0  0  0  0  0  0  0  0  0  2  0  0
    5.7430    0.0263    0.0000 C   0  0  0  0  0  0  0  0  0  3  0  0
    4.9869    1.3218    0.0000 C   0  0  0  0  0  0  0  0  0  4  0  0
    3.4870    1.3147    0.0000 C   0  0  0  0  0  0  0  0  0  5  0  0
    2.7431    0.0122    0.0000 C   0  0  0  0  0  0  0  0  0  6  0  0
    1.2431    0.0051    0.0000 C   0  0  0  0  0  0  0  0  0  7  0  0
    0.4870    1.3006    0.0000 C   0  0  0  0  0  0  0  0  0  8  0  0
    1.2309    2.6032    0.0000 C   0  0  0  0  0  0  0  0  0  9  0  0
    0.4748    3.8987    0.0000 O   0  0  0  0  0  0  0  0  0 10  0  0
    2.7309    2.6102    0.0000 O   0  0  0  0  0  0  0  0  0 11  0  0
    2.9041   -2.3253    0.0000 H   0  0  0  0  0  0  0  0  0  0  0  0
    9.3017   -2.0060    0.0000 C   0  0  0  0  0  0  0  0  0  0  0  0
    7.9991   -1.2621    0.0000 C   0  0  0  0  0  0  0  0  0  0  0  0
    7.2552   -2.5647    0.0000 C   0  0  0  0  0  0  0  0  0  0  0  0
    5.7553   -2.5717    0.0000 C   0  0  0  0  0  0  0  0  0  0  0  0
    7.2430    0.0334    0.0000 O   0  0  0  0  0  0  0  0  0  0  0  0
    9.2946   -0.5060    0.0000 C   0  0  0  0  0  0  0  0  0  0  0  0
    5.7308    2.6244    0.0000 O   0  0  0  0  0  0  0  0  0  0  0  0
    7.2308    2.6314    0.0000 C   0  0  0  0  0  0  0  0  0  0  0  0
   -1.0130    1.2936    0.0000 C   0  0  0  0  0  0  0  0  0  0  0  0
   -1.7691    2.5891    0.0000 C   0  0  0  0  0  0  0  0  0  0  0  0
   -3.2691    2.5820    0.0000 C   0  0  0  0  0  0  0  0  0  0  0  0
   -4.0130    1.2795    0.0000 C   0  0  0  0  0  0  0  0  0  0  0  0
   -3.2569   -0.0160    0.0000 C   0  0  0  0  0  0  0  0  0  0  0  0
   -1.7569   -0.0090    0.0000 C   0  0  0  0  0  0  0  0  0  0  0  0
   -1.0008   -1.3045    0.0000 O   0  0  0  0  0  0  0  0  0  0  0  0
    0.4992   -1.2974    0.0000 C   0  0  0  0  0  0  0  0  0  0  0  0
   -5.5129    1.2724    0.0000 O   0  0  0  0  0  0  0  0  0  0  0  0
   -6.2568   -0.0301    0.0000 C   0  0  0  0  0  0  0  0  0  0  0  0
   -4.0252    3.8775    0.0000 O   0  0  0  0  0  0  0  0  0  0  0  0
   -3.2813    5.1801    0.0000 C   0  0  0  0  0  0  0  0  0  0  0  0
  1  2  1  0  0  0  0
  1  6  2  0  0  0  0
  2  3  2  0  0  0  0
  3  4  1  0  0  0  0
  4  5  2  0  0  0  0
  5  6  1  0  0  0  0
  5 11  1  0  0  0  0
  6  7  1  0  0  0  0
  7  8  2  0  0  0  0
  8  9  1  0  0  0  0
  9 10  2  0  0  0  0
  9 11  1  0  0  0  0
  1 12  1  0  0  0  0
 13 14  1  0  0  0  0
 14 15  1  0  0  0  0
 14 17  1  0  0  0  0
 14 18  1  0  0  0  0
 15 16  2  0  0  0  0
  2 16  1  0  0  0  0
  3 17  1  0  0  0  0
 19 20  1  0  0  0  0
  4 19  1  0  0  0  0
 21 22  1  0  0  0  0
 21 26  2  0  0  0  0
 22 23  2  0  0  0  0
 23 24  1  0  0  0  0
 23 31  1  0  0  0  0
 24 25  2  0  0  0  0
 24 29  1  0  0  0  0
 25 26  1  0  0  0  0
 26 27  1  0  0  0  0
 27 28  1  0  0  0  0
 29 30  1  0  0  0  0
 31 32  1  0  0  0  0
  7 28  1  0  0  0  0
  8 21  1  0  0  0  0
M  END
> <score_Kier3>
0.51149

$$$$
suggested molecule #370
 MOE2019            2D

 32 36  0  0  0  0  0  0  0  0999 V2000
    3.4992   -1.2833    0.0000 C   0  0  0  0  0  0  0  0  0  1  0  0
    4.9992   -1.2762    0.0000 C   0  0  0  0  0  0  0  0  0  2  0  0
    5.7430    0.0263    0.0000 C   0  0  0  0  0  0  0  0  0  3  0  0
    4.9869    1.3218    0.0000 C   0  0  0  0  0  0  0  0  0  4  0  0
    3.4870    1.3147    0.0000 C   0  0  0  0  0  0  0  0  0  5  0  0
    2.7431    0.0122    0.0000 C   0  0  0  0  0  0  0  0  0  6  0  0
    1.2431    0.0051    0.0000 C   0  0  0  0  0  0  0  0  0  7  0  0
    0.4870    1.3006    0.0000 C   0  0  0  0  0  0  0  0  0  8  0  0
    1.2309    2.6032    0.0000 C   0  0  0  0  0  0  0  0  0  9  0  0
    0.4748    3.8987    0.0000 O   0  0  0  0  0  0  0  0  0 10  0  0
    2.7309    2.6102    0.0000 O   0  0  0  0  0  0  0  0  0 11  0  0
    2.9041   -2.3253    0.0000 H   0  0  0  0  0  0  0  0  0  0  0  0
    9.3017   -2.0060    0.0000 C   0  0  0  0  0  0  0  0  0  0  0  0
    7.9991   -1.2621    0.0000 C   0  0  0  0  0  0  0  0  0  0  0  0
    7.2552   -2.5647    0.0000 C   0  0  0  0  0  0  0  0  0  0  0  0
    5.7553   -2.5717    0.0000 C   0  0  0  0  0  0  0  0  0  0  0  0
    7.2430    0.0334    0.0000 O   0  0  0  0  0  0  0  0  0  0  0  0
    9.2946   -0.5060    0.0000 C   0  0  0  0  0  0  0  0  0  0  0  0
    5.7308    2.6244    0.0000 O   0  0  0  0  0  0  0  0  0  0  0  0
    7.2308    2.6314    0.0000 C   0  0  0  0  0  0  0  0  0  0  0  0
   -1.0130    1.2936    0.0000 C   0  0  0  0  0  0  0  0  0  0  0  0
   -1.7691    2.5891    0.0000 C   0  0  0  0  0  0  0  0  0  0  0  0
   -3.2691    2.5820    0.0000 C   0  0  0  0  0  0  0  0  0  0  0  0
   -4.0130    1.2795    0.0000 C   0  0  0  0  0  0  0  0  0  0  0  0
   -3.2569   -0.0160    0.0000 C   0  0  0  0  0  0  0  0  0  0  0  0
   -1.7569   -0.0090    0.0000 C   0  0  0  0  0  0  0  0  0  0  0  0
   -1.0008   -1.3045    0.0000 O   0  0  0  0  0  0  0  0  0  0  0  0
    0.4992   -1.2974    0.0000 C   0  0  0  0  0  0  0  0  0  0  0  0
   -5.5129    1.2724    0.0000 O   0  0  0  0  0  0  0  0  0  0  0  0
   -6.2568   -0.0301    0.0000 C   0  0  0  0  0  0  0  0  0  0  0  0
   -4.0252    3.8775    0.0000 O   0  0  0  0  0  0  0  0  0  0  0  0
   -3.2813    5.1801    0.0000 C   0  0  0  0  0  0  0  0  0  0  0  0
  1  2  1  0  0  0  0
  1  6  2  0  0  0  0
  2  3  2  0  0  0  0
  3  4  1  0  0  0  0
  4  5  2  0  0  0  0
  5  6  1  0  0  0  0
  5 11  1  0  0  0  0
  6  7  1  0  0  0  0
  7  8  2  0  0  0  0
  8  9  1  0  0  0  0
  9 10  2  0  0  0  0
  9 11  1  0  0  0  0
  1 12  1  0  0  0  0
 13 14  1  0  0  0  0
 14 15  1  0  0  0  0
 14 17  1  0  0  0  0
 14 18  1  0  0  0  0
 15 16  2  0  0  0  0
  2 16  1  0  0  0  0
  3 17  1  0  0  0  0
 19 20  1  0  0  0  0
  4 19  1  0  0  0  0
 21 22  1  0  0  0  0
 21 26  2  0  0  0  0
 22 23  2  0  0  0  0
 23 24  1  0  0  0  0
 23 31  1  0  0  0  0
 24 25  2  0  0  0  0
 24 29  1  0  0  0  0
 25 26  1  0  0  0  0
 26 27  1  0  0  0  0
 27 28  1  0  0  0  0
 29 30  1  0  0  0  0
 31 32  1  0  0  0  0
  7 28  1  0  0  0  0
  8 21  1  0  0  0  0
M  END
> <score_KierA1>
0.517606

$$$$
suggested molecule #371
 MOE2019            2D

 32 36  0  0  0  0  0  0  0  0999 V2000
    3.4992   -1.2833    0.0000 C   0  0  0  0  0  0  0  0  0  1  0  0
    4.9992   -1.2762    0.0000 C   0  0  0  0  0  0  0  0  0  2  0  0
    5.7430    0.0263    0.0000 C   0  0  0  0  0  0  0  0  0  3  0  0
    4.9869    1.3218    0.0000 C   0  0  0  0  0  0  0  0  0  4  0  0
    3.4870    1.3147    0.0000 C   0  0  0  0  0  0  0  0  0  5  0  0
    2.7431    0.0122    0.0000 C   0  0  0  0  0  0  0  0  0  6  0  0
    1.2431    0.0051    0.0000 C   0  0  0  0  0  0  0  0  0  7  0  0
    0.4870    1.3006    0.0000 C   0  0  0  0  0  0  0  0  0  8  0  0
    1.2309    2.6032    0.0000 C   0  0  0  0  0  0  0  0  0  9  0  0
    0.4748    3.8987    0.0000 O   0  0  0  0  0  0  0  0  0 10  0  0
    2.7309    2.6102    0.0000 O   0  0  0  0  0  0  0  0  0 11  0  0
    2.9041   -2.3253    0.0000 H   0  0  0  0  0  0  0  0  0  0  0  0
    9.3017   -2.0060    0.0000 C   0  0  0  0  0  0  0  0  0  0  0  0
    7.9991   -1.2621    0.0000 C   0  0  0  0  0  0  0  0  0  0  0  0
    7.2552   -2.5647    0.0000 C   0  0  0  0  0  0  0  0  0  0  0  0
    5.7553   -2.5717    0.0000 C   0  0  0  0  0  0  0  0  0  0  0  0
    7.2430    0.0334    0.0000 O   0  0  0  0  0  0  0  0  0  0  0  0
    9.2946   -0.5060    0.0000 C   0  0  0  0  0  0  0  0  0  0  0  0
    5.7308    2.6244    0.0000 O   0  0  0  0  0  0  0  0  0  0  0  0
    7.2308    2.6314    0.0000 C   0  0  0  0  0  0  0  0  0  0  0  0
   -1.0130    1.2936    0.0000 C   0  0  0  0  0  0  0  0  0  0  0  0
   -1.7691    2.5891    0.0000 C   0  0  0  0  0  0  0  0  0  0  0  0
   -3.2691    2.5820    0.0000 C   0  0  0  0  0  0  0  0  0  0  0  0
   -4.0130    1.2795    0.0000 C   0  0  0  0  0  0  0  0  0  0  0  0
   -3.2569   -0.0160    0.0000 C   0  0  0  0  0  0  0  0  0  0  0  0
   -1.7569   -0.0090    0.0000 C   0  0  0  0  0  0  0  0  0  0  0  0
   -1.0008   -1.3045    0.0000 O   0  0  0  0  0  0  0  0  0  0  0  0
    0.4992   -1.2974    0.0000 C   0  0  0  0  0  0  0  0  0  0  0  0
   -5.5129    1.2724    0.0000 O   0  0  0  0  0  0  0  0  0  0  0  0
   -6.2568   -0.0301    0.0000 C   0  0  0  0  0  0  0  0  0  0  0  0
   -4.0252    3.8775    0.0000 O   0  0  0  0  0  0  0  0  0  0  0  0
   -3.2813    5.1801    0.0000 C   0  0  0  0  0  0  0  0  0  0  0  0
  1  2  1  0  0  0  0
  1  6  2  0  0  0  0
  2  3  2  0  0  0  0
  3  4  1  0  0  0  0
  4  5  2  0  0  0  0
  5  6  1  0  0  0  0
  5 11  1  0  0  0  0
  6  7  1  0  0  0  0
  7  8  2  0  0  0  0
  8  9  1  0  0  0  0
  9 10  2  0  0  0  0
  9 11  1  0  0  0  0
  1 12  1  0  0  0  0
 13 14  1  0  0  0  0
 14 15  1  0  0  0  0
 14 17  1  0  0  0  0
 14 18  1  0  0  0  0
 15 16  2  0  0  0  0
  2 16  1  0  0  0  0
  3 17  1  0  0  0  0
 19 20  1  0  0  0  0
  4 19  1  0  0  0  0
 21 22  1  0  0  0  0
 21 26  2  0  0  0  0
 22 23  2  0  0  0  0
 23 24  1  0  0  0  0
 23 31  1  0  0  0  0
 24 25  2  0  0  0  0
 24 29  1  0  0  0  0
 25 26  1  0  0  0  0
 26 27  1  0  0  0  0
 27 28  1  0  0  0  0
 29 30  1  0  0  0  0
 31 32  1  0  0  0  0
  7 28  1  0  0  0  0
  8 21  1  0  0  0  0
M  END
> <score_KierA2>
0.516719

$$$$
suggested molecule #372
 MOE2019            2D

 32 36  0  0  0  0  0  0  0  0999 V2000
    3.4992   -1.2833    0.0000 C   0  0  0  0  0  0  0  0  0  1  0  0
    4.9992   -1.2762    0.0000 C   0  0  0  0  0  0  0  0  0  2  0  0
    5.7430    0.0263    0.0000 C   0  0  0  0  0  0  0  0  0  3  0  0
    4.9869    1.3218    0.0000 C   0  0  0  0  0  0  0  0  0  4  0  0
    3.4870    1.3147    0.0000 C   0  0  0  0  0  0  0  0  0  5  0  0
    2.7431    0.0122    0.0000 C   0  0  0  0  0  0  0  0  0  6  0  0
    1.2431    0.0051    0.0000 C   0  0  0  0  0  0  0  0  0  7  0  0
    0.4870    1.3006    0.0000 C   0  0  0  0  0  0  0  0  0  8  0  0
    1.2309    2.6032    0.0000 C   0  0  0  0  0  0  0  0  0  9  0  0
    0.4748    3.8987    0.0000 O   0  0  0  0  0  0  0  0  0 10  0  0
    2.7309    2.6102    0.0000 O   0  0  0  0  0  0  0  0  0 11  0  0
    2.9041   -2.3253    0.0000 H   0  0  0  0  0  0  0  0  0  0  0  0
    9.3017   -2.0060    0.0000 C   0  0  0  0  0  0  0  0  0  0  0  0
    7.9991   -1.2621    0.0000 C   0  0  0  0  0  0  0  0  0  0  0  0
    7.2552   -2.5647    0.0000 C   0  0  0  0  0  0  0  0  0  0  0  0
    5.7553   -2.5717    0.0000 C   0  0  0  0  0  0  0  0  0  0  0  0
    7.2430    0.0334    0.0000 O   0  0  0  0  0  0  0  0  0  0  0  0
    9.2946   -0.5060    0.0000 C   0  0  0  0  0  0  0  0  0  0  0  0
    5.7308    2.6244    0.0000 O   0  0  0  0  0  0  0  0  0  0  0  0
    7.2308    2.6314    0.0000 C   0  0  0  0  0  0  0  0  0  0  0  0
   -1.0130    1.2936    0.0000 C   0  0  0  0  0  0  0  0  0  0  0  0
   -1.7691    2.5891    0.0000 C   0  0  0  0  0  0  0  0  0  0  0  0
   -3.2691    2.5820    0.0000 C   0  0  0  0  0  0  0  0  0  0  0  0
   -4.0130    1.2795    0.0000 C   0  0  0  0  0  0  0  0  0  0  0  0
   -3.2569   -0.0160    0.0000 C   0  0  0  0  0  0  0  0  0  0  0  0
   -1.7569   -0.0090    0.0000 C   0  0  0  0  0  0  0  0  0  0  0  0
   -1.0008   -1.3045    0.0000 O   0  0  0  0  0  0  0  0  0  0  0  0
    0.4992   -1.2974    0.0000 C   0  0  0  0  0  0  0  0  0  0  0  0
   -5.5129    1.2724    0.0000 O   0  0  0  0  0  0  0  0  0  0  0  0
   -6.2568   -0.0301    0.0000 C   0  0  0  0  0  0  0  0  0  0  0  0
   -4.0252    3.8775    0.0000 O   0  0  0  0  0  0  0  0  0  0  0  0
   -3.2813    5.1801    0.0000 C   0  0  0  0  0  0  0  0  0  0  0  0
  1  2  1  0  0  0  0
  1  6  2  0  0  0  0
  2  3  2  0  0  0  0
  3  4  1  0  0  0  0
  4  5  2  0  0  0  0
  5  6  1  0  0  0  0
  5 11  1  0  0  0  0
  6  7  1  0  0  0  0
  7  8  2  0  0  0  0
  8  9  1  0  0  0  0
  9 10  2  0  0  0  0
  9 11  1  0  0  0  0
  1 12  1  0  0  0  0
 13 14  1  0  0  0  0
 14 15  1  0  0  0  0
 14 17  1  0  0  0  0
 14 18  1  0  0  0  0
 15 16  2  0  0  0  0
  2 16  1  0  0  0  0
  3 17  1  0  0  0  0
 19 20  1  0  0  0  0
  4 19  1  0  0  0  0
 21 22  1  0  0  0  0
 21 26  2  0  0  0  0
 22 23  2  0  0  0  0
 23 24  1  0  0  0  0
 23 31  1  0  0  0  0
 24 25  2  0  0  0  0
 24 29  1  0  0  0  0
 25 26  1  0  0  0  0
 26 27  1  0  0  0  0
 27 28  1  0  0  0  0
 29 30  1  0  0  0  0
 31 32  1  0  0  0  0
  7 28  1  0  0  0  0
  8 21  1  0  0  0  0
M  END
> <score_KierFlex>
0.5163

$$$$
suggested molecule #373
 MOE2019            2D

 29 32  0  0  0  0  0  0  0  0999 V2000
    3.4992   -1.2833    0.0000 C   0  0  0  0  0  0  0  0  0  1  0  0
    4.9992   -1.2762    0.0000 C   0  0  0  0  0  0  0  0  0  2  0  0
    5.7430    0.0263    0.0000 C   0  0  0  0  0  0  0  0  0  3  0  0
    4.9869    1.3218    0.0000 C   0  0  0  0  0  0  0  0  0  4  0  0
    3.4870    1.3147    0.0000 C   0  0  0  0  0  0  0  0  0  5  0  0
    2.7431    0.0122    0.0000 C   0  0  0  0  0  0  0  0  0  6  0  0
    1.2431    0.0051    0.0000 C   0  0  0  0  0  0  0  0  0  7  0  0
    0.4870    1.3006    0.0000 C   0  0  0  0  0  0  0  0  0  8  0  0
    1.2309    2.6032    0.0000 C   0  0  0  0  0  0  0  0  0  9  0  0
    0.4748    3.8987    0.0000 O   0  0  0  0  0  0  0  0  0 10  0  0
    2.7309    2.6102    0.0000 O   0  0  0  0  0  0  0  0  0 11  0  0
    2.9041   -2.3253    0.0000 H   0  0  0  0  0  0  0  0  0  0  0  0
    9.3017   -2.0060    0.0000 C   0  0  0  0  0  0  0  0  0  0  0  0
    7.9991   -1.2621    0.0000 C   0  0  0  0  0  0  0  0  0  0  0  0
    7.2552   -2.5647    0.0000 C   0  0  0  0  0  0  0  0  0  0  0  0
    5.7553   -2.5717    0.0000 C   0  0  0  0  0  0  0  0  0  0  0  0
    7.2430    0.0334    0.0000 O   0  0  0  0  0  0  0  0  0  0  0  0
    9.2946   -0.5060    0.0000 C   0  0  0  0  0  0  0  0  0  0  0  0
    5.7308    2.6244    0.0000 O   0  0  0  0  0  0  0  0  0  0  0  0
    7.2308    2.6314    0.0000 C   0  0  0  0  0  0  0  0  0  0  0  0
   -1.0130    1.2936    0.0000 C   0  0  0  0  0  0  0  0  0  0  0  0
   -1.7569   -0.0090    0.0000 C   0  0  0  0  0  0  0  0  0  0  0  0
   -3.2569   -0.0160    0.0000 C   0  0  0  0  0  0  0  0  0  0  0  0
   -4.0130    1.2795    0.0000 C   0  0  0  0  0  0  0  0  0  0  0  0
   -3.2691    2.5820    0.0000 C   0  0  0  0  0  0  0  0  0  0  0  0
   -1.7691    2.5891    0.0000 C   0  0  0  0  0  0  0  0  0  0  0  0
   -5.5129    1.2724    0.0000 O   0  0  0  0  0  0  0  0  0  0  0  0
   -1.0008   -1.3045    0.0000 O   0  0  0  0  0  0  0  0  0  0  0  0
    0.6480   -1.0369    0.0000 H   0  0  0  0  0  0  0  0  0  0  0  0
  1  2  1  0  0  0  0
  1  6  2  0  0  0  0
  2  3  2  0  0  0  0
  3  4  1  0  0  0  0
  4  5  2  0  0  0  0
  5  6  1  0  0  0  0
  5 11  1  0  0  0  0
  6  7  1  0  0  0  0
  7  8  2  0  0  0  0
  8  9  1  0  0  0  0
  9 10  2  0  0  0  0
  9 11  1  0  0  0  0
  1 12  1  0  0  0  0
 13 14  1  0  0  0  0
 14 15  1  0  0  0  0
 14 17  1  0  0  0  0
 14 18  1  0  0  0  0
 15 16  2  0  0  0  0
  2 16  1  0  0  0  0
  3 17  1  0  0  0  0
 19 20  1  0  0  0  0
  4 19  1  0  0  0  0
 21 22  1  0  0  0  0
 21 26  2  0  0  0  0
 22 23  2  0  0  0  0
 22 28  1  0  0  0  0
 23 24  1  0  0  0  0
 24 25  2  0  0  0  0
 24 27  1  0  0  0  0
 25 26  1  0  0  0  0
  8 21  1  0  0  0  0
  7 29  1  0  0  0  0
M  END
> <score_Kier3>
0.511441

$$$$
suggested molecule #374
 MOE2019            2D

 29 32  0  0  0  0  0  0  0  0999 V2000
    3.4992   -1.2833    0.0000 C   0  0  0  0  0  0  0  0  0  1  0  0
    4.9992   -1.2762    0.0000 C   0  0  0  0  0  0  0  0  0  2  0  0
    5.7430    0.0263    0.0000 C   0  0  0  0  0  0  0  0  0  3  0  0
    4.9869    1.3218    0.0000 C   0  0  0  0  0  0  0  0  0  4  0  0
    3.4870    1.3147    0.0000 C   0  0  0  0  0  0  0  0  0  5  0  0
    2.7431    0.0122    0.0000 C   0  0  0  0  0  0  0  0  0  6  0  0
    1.2431    0.0051    0.0000 C   0  0  0  0  0  0  0  0  0  7  0  0
    0.4870    1.3006    0.0000 C   0  0  0  0  0  0  0  0  0  8  0  0
    1.2309    2.6032    0.0000 C   0  0  0  0  0  0  0  0  0  9  0  0
    0.4748    3.8987    0.0000 O   0  0  0  0  0  0  0  0  0 10  0  0
    2.7309    2.6102    0.0000 O   0  0  0  0  0  0  0  0  0 11  0  0
    2.9041   -2.3253    0.0000 H   0  0  0  0  0  0  0  0  0  0  0  0
    9.3017   -2.0060    0.0000 C   0  0  0  0  0  0  0  0  0  0  0  0
    7.9991   -1.2621    0.0000 C   0  0  0  0  0  0  0  0  0  0  0  0
    7.2552   -2.5647    0.0000 C   0  0  0  0  0  0  0  0  0  0  0  0
    5.7553   -2.5717    0.0000 C   0  0  0  0  0  0  0  0  0  0  0  0
    7.2430    0.0334    0.0000 O   0  0  0  0  0  0  0  0  0  0  0  0
    9.2946   -0.5060    0.0000 C   0  0  0  0  0  0  0  0  0  0  0  0
    5.7308    2.6244    0.0000 O   0  0  0  0  0  0  0  0  0  0  0  0
    7.2308    2.6314    0.0000 C   0  0  0  0  0  0  0  0  0  0  0  0
   -1.0130    1.2936    0.0000 C   0  0  0  0  0  0  0  0  0  0  0  0
   -1.7569   -0.0090    0.0000 C   0  0  0  0  0  0  0  0  0  0  0  0
   -3.2569   -0.0160    0.0000 C   0  0  0  0  0  0  0  0  0  0  0  0
   -4.0130    1.2795    0.0000 C   0  0  0  0  0  0  0  0  0  0  0  0
   -3.2691    2.5820    0.0000 C   0  0  0  0  0  0  0  0  0  0  0  0
   -1.7691    2.5891    0.0000 C   0  0  0  0  0  0  0  0  0  0  0  0
   -5.5129    1.2724    0.0000 O   0  0  0  0  0  0  0  0  0  0  0  0
   -1.0008   -1.3045    0.0000 O   0  0  0  0  0  0  0  0  0  0  0  0
    0.6480   -1.0369    0.0000 H   0  0  0  0  0  0  0  0  0  0  0  0
  1  2  1  0  0  0  0
  1  6  2  0  0  0  0
  2  3  2  0  0  0  0
  3  4  1  0  0  0  0
  4  5  2  0  0  0  0
  5  6  1  0  0  0  0
  5 11  1  0  0  0  0
  6  7  1  0  0  0  0
  7  8  2  0  0  0  0
  8  9  1  0  0  0  0
  9 10  2  0  0  0  0
  9 11  1  0  0  0  0
  1 12  1  0  0  0  0
 13 14  1  0  0  0  0
 14 15  1  0  0  0  0
 14 17  1  0  0  0  0
 14 18  1  0  0  0  0
 15 16  2  0  0  0  0
  2 16  1  0  0  0  0
  3 17  1  0  0  0  0
 19 20  1  0  0  0  0
  4 19  1  0  0  0  0
 21 22  1  0  0  0  0
 21 26  2  0  0  0  0
 22 23  2  0  0  0  0
 22 28  1  0  0  0  0
 23 24  1  0  0  0  0
 24 25  2  0  0  0  0
 24 27  1  0  0  0  0
 25 26  1  0  0  0  0
  8 21  1  0  0  0  0
  7 29  1  0  0  0  0
M  END
> <score_KierA1>
0.517606

$$$$
suggested molecule #375
 MOE2019            2D

 29 32  0  0  0  0  0  0  0  0999 V2000
    3.4992   -1.2833    0.0000 C   0  0  0  0  0  0  0  0  0  1  0  0
    4.9992   -1.2762    0.0000 C   0  0  0  0  0  0  0  0  0  2  0  0
    5.7430    0.0263    0.0000 C   0  0  0  0  0  0  0  0  0  3  0  0
    4.9869    1.3218    0.0000 C   0  0  0  0  0  0  0  0  0  4  0  0
    3.4870    1.3147    0.0000 C   0  0  0  0  0  0  0  0  0  5  0  0
    2.7431    0.0122    0.0000 C   0  0  0  0  0  0  0  0  0  6  0  0
    1.2431    0.0051    0.0000 C   0  0  0  0  0  0  0  0  0  7  0  0
    0.4870    1.3006    0.0000 C   0  0  0  0  0  0  0  0  0  8  0  0
    1.2309    2.6032    0.0000 C   0  0  0  0  0  0  0  0  0  9  0  0
    0.4748    3.8987    0.0000 O   0  0  0  0  0  0  0  0  0 10  0  0
    2.7309    2.6102    0.0000 O   0  0  0  0  0  0  0  0  0 11  0  0
    2.9041   -2.3253    0.0000 H   0  0  0  0  0  0  0  0  0  0  0  0
    9.3017   -2.0060    0.0000 C   0  0  0  0  0  0  0  0  0  0  0  0
    7.9991   -1.2621    0.0000 C   0  0  0  0  0  0  0  0  0  0  0  0
    7.2552   -2.5647    0.0000 C   0  0  0  0  0  0  0  0  0  0  0  0
    5.7553   -2.5717    0.0000 C   0  0  0  0  0  0  0  0  0  0  0  0
    7.2430    0.0334    0.0000 O   0  0  0  0  0  0  0  0  0  0  0  0
    9.2946   -0.5060    0.0000 C   0  0  0  0  0  0  0  0  0  0  0  0
    5.7308    2.6244    0.0000 O   0  0  0  0  0  0  0  0  0  0  0  0
    7.2308    2.6314    0.0000 C   0  0  0  0  0  0  0  0  0  0  0  0
   -1.0130    1.2936    0.0000 C   0  0  0  0  0  0  0  0  0  0  0  0
   -1.7569   -0.0090    0.0000 C   0  0  0  0  0  0  0  0  0  0  0  0
   -3.2569   -0.0160    0.0000 C   0  0  0  0  0  0  0  0  0  0  0  0
   -4.0130    1.2795    0.0000 C   0  0  0  0  0  0  0  0  0  0  0  0
   -3.2691    2.5820    0.0000 C   0  0  0  0  0  0  0  0  0  0  0  0
   -1.7691    2.5891    0.0000 C   0  0  0  0  0  0  0  0  0  0  0  0
   -5.5129    1.2724    0.0000 O   0  0  0  0  0  0  0  0  0  0  0  0
   -1.0008   -1.3045    0.0000 O   0  0  0  0  0  0  0  0  0  0  0  0
    0.6480   -1.0369    0.0000 H   0  0  0  0  0  0  0  0  0  0  0  0
  1  2  1  0  0  0  0
  1  6  2  0  0  0  0
  2  3  2  0  0  0  0
  3  4  1  0  0  0  0
  4  5  2  0  0  0  0
  5  6  1  0  0  0  0
  5 11  1  0  0  0  0
  6  7  1  0  0  0  0
  7  8  2  0  0  0  0
  8  9  1  0  0  0  0
  9 10  2  0  0  0  0
  9 11  1  0  0  0  0
  1 12  1  0  0  0  0
 13 14  1  0  0  0  0
 14 15  1  0  0  0  0
 14 17  1  0  0  0  0
 14 18  1  0  0  0  0
 15 16  2  0  0  0  0
  2 16  1  0  0  0  0
  3 17  1  0  0  0  0
 19 20  1  0  0  0  0
  4 19  1  0  0  0  0
 21 22  1  0  0  0  0
 21 26  2  0  0  0  0
 22 23  2  0  0  0  0
 22 28  1  0  0  0  0
 23 24  1  0  0  0  0
 24 25  2  0  0  0  0
 24 27  1  0  0  0  0
 25 26  1  0  0  0  0
  8 21  1  0  0  0  0
  7 29  1  0  0  0  0
M  END
> <score_KierA2>
0.516716

$$$$
suggested molecule #376
 MOE2019            2D

 29 32  0  0  0  0  0  0  0  0999 V2000
    3.4992   -1.2833    0.0000 C   0  0  0  0  0  0  0  0  0  1  0  0
    4.9992   -1.2762    0.0000 C   0  0  0  0  0  0  0  0  0  2  0  0
    5.7430    0.0263    0.0000 C   0  0  0  0  0  0  0  0  0  3  0  0
    4.9869    1.3218    0.0000 C   0  0  0  0  0  0  0  0  0  4  0  0
    3.4870    1.3147    0.0000 C   0  0  0  0  0  0  0  0  0  5  0  0
    2.7431    0.0122    0.0000 C   0  0  0  0  0  0  0  0  0  6  0  0
    1.2431    0.0051    0.0000 C   0  0  0  0  0  0  0  0  0  7  0  0
    0.4870    1.3006    0.0000 C   0  0  0  0  0  0  0  0  0  8  0  0
    1.2309    2.6032    0.0000 C   0  0  0  0  0  0  0  0  0  9  0  0
    0.4748    3.8987    0.0000 O   0  0  0  0  0  0  0  0  0 10  0  0
    2.7309    2.6102    0.0000 O   0  0  0  0  0  0  0  0  0 11  0  0
    2.9041   -2.3253    0.0000 H   0  0  0  0  0  0  0  0  0  0  0  0
    9.3017   -2.0060    0.0000 C   0  0  0  0  0  0  0  0  0  0  0  0
    7.9991   -1.2621    0.0000 C   0  0  0  0  0  0  0  0  0  0  0  0
    7.2552   -2.5647    0.0000 C   0  0  0  0  0  0  0  0  0  0  0  0
    5.7553   -2.5717    0.0000 C   0  0  0  0  0  0  0  0  0  0  0  0
    7.2430    0.0334    0.0000 O   0  0  0  0  0  0  0  0  0  0  0  0
    9.2946   -0.5060    0.0000 C   0  0  0  0  0  0  0  0  0  0  0  0
    5.7308    2.6244    0.0000 O   0  0  0  0  0  0  0  0  0  0  0  0
    7.2308    2.6314    0.0000 C   0  0  0  0  0  0  0  0  0  0  0  0
   -1.0130    1.2936    0.0000 C   0  0  0  0  0  0  0  0  0  0  0  0
   -1.7569   -0.0090    0.0000 C   0  0  0  0  0  0  0  0  0  0  0  0
   -3.2569   -0.0160    0.0000 C   0  0  0  0  0  0  0  0  0  0  0  0
   -4.0130    1.2795    0.0000 C   0  0  0  0  0  0  0  0  0  0  0  0
   -3.2691    2.5820    0.0000 C   0  0  0  0  0  0  0  0  0  0  0  0
   -1.7691    2.5891    0.0000 C   0  0  0  0  0  0  0  0  0  0  0  0
   -5.5129    1.2724    0.0000 O   0  0  0  0  0  0  0  0  0  0  0  0
   -1.0008   -1.3045    0.0000 O   0  0  0  0  0  0  0  0  0  0  0  0
    0.6480   -1.0369    0.0000 H   0  0  0  0  0  0  0  0  0  0  0  0
  1  2  1  0  0  0  0
  1  6  2  0  0  0  0
  2  3  2  0  0  0  0
  3  4  1  0  0  0  0
  4  5  2  0  0  0  0
  5  6  1  0  0  0  0
  5 11  1  0  0  0  0
  6  7  1  0  0  0  0
  7  8  2  0  0  0  0
  8  9  1  0  0  0  0
  9 10  2  0  0  0  0
  9 11  1  0  0  0  0
  1 12  1  0  0  0  0
 13 14  1  0  0  0  0
 14 15  1  0  0  0  0
 14 17  1  0  0  0  0
 14 18  1  0  0  0  0
 15 16  2  0  0  0  0
  2 16  1  0  0  0  0
  3 17  1  0  0  0  0
 19 20  1  0  0  0  0
  4 19  1  0  0  0  0
 21 22  1  0  0  0  0
 21 26  2  0  0  0  0
 22 23  2  0  0  0  0
 22 28  1  0  0  0  0
 23 24  1  0  0  0  0
 24 25  2  0  0  0  0
 24 27  1  0  0  0  0
 25 26  1  0  0  0  0
  8 21  1  0  0  0  0
  7 29  1  0  0  0  0
M  END
> <score_KierFlex>
0.516282

$$$$
suggested molecule #377
 MOE2019            2D

 41 46  0  0  0  0  0  0  0  0999 V2000
    3.4992   -1.2833    0.0000 C   0  0  0  0  0  0  0  0  0  1  0  0
    4.9992   -1.2762    0.0000 C   0  0  0  0  0  0  0  0  0  2  0  0
    5.7430    0.0263    0.0000 C   0  0  0  0  0  0  0  0  0  3  0  0
    4.9869    1.3218    0.0000 C   0  0  0  0  0  0  0  0  0  4  0  0
    3.4870    1.3147    0.0000 C   0  0  0  0  0  0  0  0  0  5  0  0
    2.7431    0.0122    0.0000 C   0  0  0  0  0  0  0  0  0  6  0  0
    1.2431    0.0051    0.0000 C   0  0  0  0  0  0  0  0  0  7  0  0
    0.4870    1.3006    0.0000 C   0  0  0  0  0  0  0  0  0  8  0  0
    1.2309    2.6032    0.0000 C   0  0  0  0  0  0  0  0  0  9  0  0
    0.4748    3.8987    0.0000 O   0  0  0  0  0  0  0  0  0 10  0  0
    2.7309    2.6102    0.0000 O   0  0  0  0  0  0  0  0  0 11  0  0
    2.9041   -2.3253    0.0000 H   0  0  0  0  0  0  0  0  0  0  0  0
    9.3017   -2.0060    0.0000 C   0  0  0  0  0  0  0  0  0  0  0  0
    7.9991   -1.2621    0.0000 C   0  0  0  0  0  0  0  0  0  0  0  0
    7.2552   -2.5647    0.0000 C   0  0  0  0  0  0  0  0  0  0  0  0
    5.7553   -2.5717    0.0000 C   0  0  0  0  0  0  0  0  0  0  0  0
    7.2430    0.0334    0.0000 O   0  0  0  0  0  0  0  0  0  0  0  0
    9.2946   -0.5060    0.0000 C   0  0  0  0  0  0  0  0  0  0  0  0
    5.7308    2.6244    0.0000 O   0  0  0  0  0  0  0  0  0  0  0  0
    7.2308    2.6314    0.0000 C   0  0  0  0  0  0  0  0  0  0  0  0
    0.4625    6.4967    0.0000 C   0  0  0  0  0  0  0  0  0  0  0  0
    1.2064    7.7993    0.0000 C   0  0  0  0  0  0  0  0  0  0  0  0
    0.4503    9.0948    0.0000 C   0  0  0  0  0  0  0  0  0  0  0  0
   -1.0497    9.0877    0.0000 C   0  0  0  0  0  0  0  0  0  0  0  0
   -1.7935    7.7852    0.0000 C   0  0  0  0  0  0  0  0  0  0  0  0
   -1.0374    6.4897    0.0000 C   0  0  0  0  0  0  0  0  0  0  0  0
   -1.7813    5.1871    0.0000 C   0  0  0  0  0  0  0  0  0  0  0  0
   -3.2813    5.1801    0.0000 C   0  0  0  0  0  0  0  0  0  0  0  0
   -4.0252    3.8775    0.0000 C   0  0  0  0  0  0  0  0  0  0  0  0
   -5.5252    3.8705    0.0000 O   0  0  0  0  0  0  0  0  0  0  0  0
   -3.2691    2.5820    0.0000 C   0  0  0  0  0  0  0  0  0  0  0  0
   -1.7691    2.5891    0.0000 C   0  0  0  0  0  0  0  0  0  0  0  0
   -1.0252    3.8916    0.0000 O   0  0  0  0  0  0  0  0  0  0  0  0
   -1.0130    1.2936    0.0000 C   0  0  0  0  0  0  0  0  0  0  0  0
   -1.7569   -0.0090    0.0000 C   0  0  0  0  0  0  0  0  0  0  0  0
   -3.2569   -0.0160    0.0000 C   0  0  0  0  0  0  0  0  0  0  0  0
   -4.0130    1.2795    0.0000 C   0  0  0  0  0  0  0  0  0  0  0  0
   -5.5129    1.2724    0.0000 O   0  0  0  0  0  0  0  0  0  0  0  0
   -1.0008   -1.3045    0.0000 O   0  0  0  0  0  0  0  0  0  0  0  0
    1.1942   10.3973    0.0000 O   0  0  0  0  0  0  0  0  0  0  0  0
    0.6480   -1.0369    0.0000 H   0  0  0  0  0  0  0  0  0  0  0  0
  1  2  1  0  0  0  0
  1  6  2  0  0  0  0
  2  3  2  0  0  0  0
  3  4  1  0  0  0  0
  4  5  2  0  0  0  0
  5  6  1  0  0  0  0
  5 11  1  0  0  0  0
  6  7  1  0  0  0  0
  7  8  2  0  0  0  0
  8  9  1  0  0  0  0
  9 10  2  0  0  0  0
  9 11  1  0  0  0  0
  1 12  1  0  0  0  0
 13 14  1  0  0  0  0
 14 15  1  0  0  0  0
 14 17  1  0  0  0  0
 14 18  1  0  0  0  0
 15 16  2  0  0  0  0
  2 16  1  0  0  0  0
  3 17  1  0  0  0  0
 19 20  1  0  0  0  0
  4 19  1  0  0  0  0
 21 22  1  0  0  0  0
 21 26  2  0  0  0  0
 22 23  2  0  0  0  0
 23 24  1  0  0  0  0
 23 40  1  0  0  0  0
 24 25  2  0  0  0  0
 25 26  1  0  0  0  0
 26 27  1  0  0  0  0
 27 28  2  0  0  0  0
 27 33  1  0  0  0  0
 28 29  1  0  0  0  0
 29 30  2  0  0  0  0
 29 31  1  0  0  0  0
 31 32  2  0  0  0  0
 31 37  1  0  0  0  0
 32 33  1  0  0  0  0
 32 34  1  0  0  0  0
 34 35  2  0  0  0  0
 35 36  1  0  0  0  0
 35 39  1  0  0  0  0
 36 37  2  0  0  0  0
 37 38  1  0  0  0  0
  8 34  1  0  0  0  0
  7 41  1  0  0  0  0
M  END
> <score_KierA1>
0.517587

$$$$
suggested molecule #378
 MOE2019            2D

 41 46  0  0  0  0  0  0  0  0999 V2000
    3.4992   -1.2833    0.0000 C   0  0  0  0  0  0  0  0  0  1  0  0
    4.9992   -1.2762    0.0000 C   0  0  0  0  0  0  0  0  0  2  0  0
    5.7430    0.0263    0.0000 C   0  0  0  0  0  0  0  0  0  3  0  0
    4.9869    1.3218    0.0000 C   0  0  0  0  0  0  0  0  0  4  0  0
    3.4870    1.3147    0.0000 C   0  0  0  0  0  0  0  0  0  5  0  0
    2.7431    0.0122    0.0000 C   0  0  0  0  0  0  0  0  0  6  0  0
    1.2431    0.0051    0.0000 C   0  0  0  0  0  0  0  0  0  7  0  0
    0.4870    1.3006    0.0000 C   0  0  0  0  0  0  0  0  0  8  0  0
    1.2309    2.6032    0.0000 C   0  0  0  0  0  0  0  0  0  9  0  0
    0.4748    3.8987    0.0000 O   0  0  0  0  0  0  0  0  0 10  0  0
    2.7309    2.6102    0.0000 O   0  0  0  0  0  0  0  0  0 11  0  0
    2.9041   -2.3253    0.0000 H   0  0  0  0  0  0  0  0  0  0  0  0
    9.3017   -2.0060    0.0000 C   0  0  0  0  0  0  0  0  0  0  0  0
    7.9991   -1.2621    0.0000 C   0  0  0  0  0  0  0  0  0  0  0  0
    7.2552   -2.5647    0.0000 C   0  0  0  0  0  0  0  0  0  0  0  0
    5.7553   -2.5717    0.0000 C   0  0  0  0  0  0  0  0  0  0  0  0
    7.2430    0.0334    0.0000 O   0  0  0  0  0  0  0  0  0  0  0  0
    9.2946   -0.5060    0.0000 C   0  0  0  0  0  0  0  0  0  0  0  0
    5.7308    2.6244    0.0000 O   0  0  0  0  0  0  0  0  0  0  0  0
    7.2308    2.6314    0.0000 C   0  0  0  0  0  0  0  0  0  0  0  0
    0.4625    6.4967    0.0000 C   0  0  0  0  0  0  0  0  0  0  0  0
    1.2064    7.7993    0.0000 C   0  0  0  0  0  0  0  0  0  0  0  0
    0.4503    9.0948    0.0000 C   0  0  0  0  0  0  0  0  0  0  0  0
   -1.0497    9.0877    0.0000 C   0  0  0  0  0  0  0  0  0  0  0  0
   -1.7935    7.7852    0.0000 C   0  0  0  0  0  0  0  0  0  0  0  0
   -1.0374    6.4897    0.0000 C   0  0  0  0  0  0  0  0  0  0  0  0
   -1.7813    5.1871    0.0000 C   0  0  0  0  0  0  0  0  0  0  0  0
   -3.2813    5.1801    0.0000 C   0  0  0  0  0  0  0  0  0  0  0  0
   -4.0252    3.8775    0.0000 C   0  0  0  0  0  0  0  0  0  0  0  0
   -5.5252    3.8705    0.0000 O   0  0  0  0  0  0  0  0  0  0  0  0
   -3.2691    2.5820    0.0000 C   0  0  0  0  0  0  0  0  0  0  0  0
   -1.7691    2.5891    0.0000 C   0  0  0  0  0  0  0  0  0  0  0  0
   -1.0252    3.8916    0.0000 O   0  0  0  0  0  0  0  0  0  0  0  0
   -1.0130    1.2936    0.0000 C   0  0  0  0  0  0  0  0  0  0  0  0
   -1.7569   -0.0090    0.0000 C   0  0  0  0  0  0  0  0  0  0  0  0
   -3.2569   -0.0160    0.0000 C   0  0  0  0  0  0  0  0  0  0  0  0
   -4.0130    1.2795    0.0000 C   0  0  0  0  0  0  0  0  0  0  0  0
   -5.5129    1.2724    0.0000 O   0  0  0  0  0  0  0  0  0  0  0  0
   -1.0008   -1.3045    0.0000 O   0  0  0  0  0  0  0  0  0  0  0  0
    1.1942   10.3973    0.0000 O   0  0  0  0  0  0  0  0  0  0  0  0
    0.6480   -1.0369    0.0000 H   0  0  0  0  0  0  0  0  0  0  0  0
  1  2  1  0  0  0  0
  1  6  2  0  0  0  0
  2  3  2  0  0  0  0
  3  4  1  0  0  0  0
  4  5  2  0  0  0  0
  5  6  1  0  0  0  0
  5 11  1  0  0  0  0
  6  7  1  0  0  0  0
  7  8  2  0  0  0  0
  8  9  1  0  0  0  0
  9 10  2  0  0  0  0
  9 11  1  0  0  0  0
  1 12  1  0  0  0  0
 13 14  1  0  0  0  0
 14 15  1  0  0  0  0
 14 17  1  0  0  0  0
 14 18  1  0  0  0  0
 15 16  2  0  0  0  0
  2 16  1  0  0  0  0
  3 17  1  0  0  0  0
 19 20  1  0  0  0  0
  4 19  1  0  0  0  0
 21 22  1  0  0  0  0
 21 26  2  0  0  0  0
 22 23  2  0  0  0  0
 23 24  1  0  0  0  0
 23 40  1  0  0  0  0
 24 25  2  0  0  0  0
 25 26  1  0  0  0  0
 26 27  1  0  0  0  0
 27 28  2  0  0  0  0
 27 33  1  0  0  0  0
 28 29  1  0  0  0  0
 29 30  2  0  0  0  0
 29 31  1  0  0  0  0
 31 32  2  0  0  0  0
 31 37  1  0  0  0  0
 32 33  1  0  0  0  0
 32 34  1  0  0  0  0
 34 35  2  0  0  0  0
 35 36  1  0  0  0  0
 35 39  1  0  0  0  0
 36 37  2  0  0  0  0
 37 38  1  0  0  0  0
  8 34  1  0  0  0  0
  7 41  1  0  0  0  0
M  END
> <score_KierFlex>
0.516273

$$$$
suggested molecule #379
 MOE2019            2D

 25 27  0  0  0  0  0  0  0  0999 V2000
    3.4992   -1.2833    0.0000 C   0  0  0  0  0  0  0  0  0  1  0  0
    4.9992   -1.2762    0.0000 C   0  0  0  0  0  0  0  0  0  2  0  0
    5.7430    0.0263    0.0000 C   0  0  0  0  0  0  0  0  0  3  0  0
    4.9869    1.3218    0.0000 C   0  0  0  0  0  0  0  0  0  4  0  0
    3.4870    1.3147    0.0000 C   0  0  0  0  0  0  0  0  0  5  0  0
    2.7431    0.0122    0.0000 C   0  0  0  0  0  0  0  0  0  6  0  0
    1.2431    0.0051    0.0000 C   0  0  0  0  0  0  0  0  0  7  0  0
    0.4870    1.3006    0.0000 C   0  0  0  0  0  0  0  0  0  8  0  0
    1.2309    2.6032    0.0000 C   0  0  0  0  0  0  0  0  0  9  0  0
    0.4748    3.8987    0.0000 O   0  0  0  0  0  0  0  0  0 10  0  0
    2.7309    2.6102    0.0000 O   0  0  0  0  0  0  0  0  0 11  0  0
    2.9041   -2.3253    0.0000 H   0  0  0  0  0  0  0  0  0  0  0  0
    9.3017   -2.0060    0.0000 C   0  0  0  0  0  0  0  0  0  0  0  0
    7.9991   -1.2621    0.0000 C   0  0  0  0  0  0  0  0  0  0  0  0
    7.2552   -2.5647    0.0000 C   0  0  0  0  0  0  0  0  0  0  0  0
    5.7553   -2.5717    0.0000 C   0  0  0  0  0  0  0  0  0  0  0  0
    7.2430    0.0334    0.0000 O   0  0  0  0  0  0  0  0  0  0  0  0
    9.2946   -0.5060    0.0000 C   0  0  0  0  0  0  0  0  0  0  0  0
    5.7308    2.6244    0.0000 O   0  0  0  0  0  0  0  0  0  0  0  0
    4.9747    3.9198    0.0000 C   0  0  0  0  0  0  0  0  0  0  0  0
   -0.7130    1.2950    0.0000 H   0  0  0  0  0  0  0  0  0  0  0  0
    0.4992   -1.2974    0.0000 C   0  0  0  0  0  0  0  0  0  0  0  0
   -1.0008   -1.3045    0.0000 C   0  0  0  0  0  0  0  0  0  0  0  0
   -1.7569   -0.0090    0.0000 O   0  0  0  0  0  0  0  0  0  0  0  0
   -1.7447   -2.6070    0.0000 C   0  0  0  0  0  0  0  0  0  0  0  0
  1  2  1  0  0  0  0
  1  6  2  0  0  0  0
  2  3  2  0  0  0  0
  3  4  1  0  0  0  0
  4  5  2  0  0  0  0
  5  6  1  0  0  0  0
  5 11  1  0  0  0  0
  6  7  1  0  0  0  0
  7  8  2  0  0  0  0
  8  9  1  0  0  0  0
  9 10  2  0  0  0  0
  9 11  1  0  0  0  0
  1 12  1  0  0  0  0
 13 14  1  0  0  0  0
 14 15  1  0  0  0  0
 14 17  1  0  0  0  0
 14 18  1  0  0  0  0
 15 16  2  0  0  0  0
  2 16  1  0  0  0  0
  3 17  1  0  0  0  0
 19 20  1  0  0  0  0
  4 19  1  0  0  0  0
  8 21  1  0  0  0  0
 22 23  1  0  0  0  0
 23 24  2  0  0  0  0
 23 25  1  0  0  0  0
  7 22  1  0  0  0  0
M  END
> <score_Kier3>
0.511667

$$$$
suggested molecule #380
 MOE2019            2D

 25 27  0  0  0  0  0  0  0  0999 V2000
    3.4992   -1.2833    0.0000 C   0  0  0  0  0  0  0  0  0  1  0  0
    4.9992   -1.2762    0.0000 C   0  0  0  0  0  0  0  0  0  2  0  0
    5.7430    0.0263    0.0000 C   0  0  0  0  0  0  0  0  0  3  0  0
    4.9869    1.3218    0.0000 C   0  0  0  0  0  0  0  0  0  4  0  0
    3.4870    1.3147    0.0000 C   0  0  0  0  0  0  0  0  0  5  0  0
    2.7431    0.0122    0.0000 C   0  0  0  0  0  0  0  0  0  6  0  0
    1.2431    0.0051    0.0000 C   0  0  0  0  0  0  0  0  0  7  0  0
    0.4870    1.3006    0.0000 C   0  0  0  0  0  0  0  0  0  8  0  0
    1.2309    2.6032    0.0000 C   0  0  0  0  0  0  0  0  0  9  0  0
    0.4748    3.8987    0.0000 O   0  0  0  0  0  0  0  0  0 10  0  0
    2.7309    2.6102    0.0000 O   0  0  0  0  0  0  0  0  0 11  0  0
    2.9041   -2.3253    0.0000 H   0  0  0  0  0  0  0  0  0  0  0  0
    9.3017   -2.0060    0.0000 C   0  0  0  0  0  0  0  0  0  0  0  0
    7.9991   -1.2621    0.0000 C   0  0  0  0  0  0  0  0  0  0  0  0
    7.2552   -2.5647    0.0000 C   0  0  0  0  0  0  0  0  0  0  0  0
    5.7553   -2.5717    0.0000 C   0  0  0  0  0  0  0  0  0  0  0  0
    7.2430    0.0334    0.0000 O   0  0  0  0  0  0  0  0  0  0  0  0
    9.2946   -0.5060    0.0000 C   0  0  0  0  0  0  0  0  0  0  0  0
    5.7308    2.6244    0.0000 O   0  0  0  0  0  0  0  0  0  0  0  0
    4.9747    3.9198    0.0000 C   0  0  0  0  0  0  0  0  0  0  0  0
   -0.7130    1.2950    0.0000 H   0  0  0  0  0  0  0  0  0  0  0  0
    0.4992   -1.2974    0.0000 C   0  0  0  0  0  0  0  0  0  0  0  0
   -1.0008   -1.3045    0.0000 C   0  0  0  0  0  0  0  0  0  0  0  0
   -1.7569   -0.0090    0.0000 O   0  0  0  0  0  0  0  0  0  0  0  0
   -1.7447   -2.6070    0.0000 C   0  0  0  0  0  0  0  0  0  0  0  0
  1  2  1  0  0  0  0
  1  6  2  0  0  0  0
  2  3  2  0  0  0  0
  3  4  1  0  0  0  0
  4  5  2  0  0  0  0
  5  6  1  0  0  0  0
  5 11  1  0  0  0  0
  6  7  1  0  0  0  0
  7  8  2  0  0  0  0
  8  9  1  0  0  0  0
  9 10  2  0  0  0  0
  9 11  1  0  0  0  0
  1 12  1  0  0  0  0
 13 14  1  0  0  0  0
 14 15  1  0  0  0  0
 14 17  1  0  0  0  0
 14 18  1  0  0  0  0
 15 16  2  0  0  0  0
  2 16  1  0  0  0  0
  3 17  1  0  0  0  0
 19 20  1  0  0  0  0
  4 19  1  0  0  0  0
  8 21  1  0  0  0  0
 22 23  1  0  0  0  0
 23 24  2  0  0  0  0
 23 25  1  0  0  0  0
  7 22  1  0  0  0  0
M  END
> <score_KierA1>
0.517692

$$$$
suggested molecule #381
 MOE2019            2D

 25 27  0  0  0  0  0  0  0  0999 V2000
    3.4992   -1.2833    0.0000 C   0  0  0  0  0  0  0  0  0  1  0  0
    4.9992   -1.2762    0.0000 C   0  0  0  0  0  0  0  0  0  2  0  0
    5.7430    0.0263    0.0000 C   0  0  0  0  0  0  0  0  0  3  0  0
    4.9869    1.3218    0.0000 C   0  0  0  0  0  0  0  0  0  4  0  0
    3.4870    1.3147    0.0000 C   0  0  0  0  0  0  0  0  0  5  0  0
    2.7431    0.0122    0.0000 C   0  0  0  0  0  0  0  0  0  6  0  0
    1.2431    0.0051    0.0000 C   0  0  0  0  0  0  0  0  0  7  0  0
    0.4870    1.3006    0.0000 C   0  0  0  0  0  0  0  0  0  8  0  0
    1.2309    2.6032    0.0000 C   0  0  0  0  0  0  0  0  0  9  0  0
    0.4748    3.8987    0.0000 O   0  0  0  0  0  0  0  0  0 10  0  0
    2.7309    2.6102    0.0000 O   0  0  0  0  0  0  0  0  0 11  0  0
    2.9041   -2.3253    0.0000 H   0  0  0  0  0  0  0  0  0  0  0  0
    9.3017   -2.0060    0.0000 C   0  0  0  0  0  0  0  0  0  0  0  0
    7.9991   -1.2621    0.0000 C   0  0  0  0  0  0  0  0  0  0  0  0
    7.2552   -2.5647    0.0000 C   0  0  0  0  0  0  0  0  0  0  0  0
    5.7553   -2.5717    0.0000 C   0  0  0  0  0  0  0  0  0  0  0  0
    7.2430    0.0334    0.0000 O   0  0  0  0  0  0  0  0  0  0  0  0
    9.2946   -0.5060    0.0000 C   0  0  0  0  0  0  0  0  0  0  0  0
    5.7308    2.6244    0.0000 O   0  0  0  0  0  0  0  0  0  0  0  0
    4.9747    3.9198    0.0000 C   0  0  0  0  0  0  0  0  0  0  0  0
   -0.7130    1.2950    0.0000 H   0  0  0  0  0  0  0  0  0  0  0  0
    0.4992   -1.2974    0.0000 C   0  0  0  0  0  0  0  0  0  0  0  0
   -1.0008   -1.3045    0.0000 C   0  0  0  0  0  0  0  0  0  0  0  0
   -1.7569   -0.0090    0.0000 O   0  0  0  0  0  0  0  0  0  0  0  0
   -1.7447   -2.6070    0.0000 C   0  0  0  0  0  0  0  0  0  0  0  0
  1  2  1  0  0  0  0
  1  6  2  0  0  0  0
  2  3  2  0  0  0  0
  3  4  1  0  0  0  0
  4  5  2  0  0  0  0
  5  6  1  0  0  0  0
  5 11  1  0  0  0  0
  6  7  1  0  0  0  0
  7  8  2  0  0  0  0
  8  9  1  0  0  0  0
  9 10  2  0  0  0  0
  9 11  1  0  0  0  0
  1 12  1  0  0  0  0
 13 14  1  0  0  0  0
 14 15  1  0  0  0  0
 14 17  1  0  0  0  0
 14 18  1  0  0  0  0
 15 16  2  0  0  0  0
  2 16  1  0  0  0  0
  3 17  1  0  0  0  0
 19 20  1  0  0  0  0
  4 19  1  0  0  0  0
  8 21  1  0  0  0  0
 22 23  1  0  0  0  0
 23 24  2  0  0  0  0
 23 25  1  0  0  0  0
  7 22  1  0  0  0  0
M  END
> <score_KierA2>
0.516755

$$$$
suggested molecule #382
 MOE2019            2D

 25 27  0  0  0  0  0  0  0  0999 V2000
    3.4992   -1.2833    0.0000 C   0  0  0  0  0  0  0  0  0  1  0  0
    4.9992   -1.2762    0.0000 C   0  0  0  0  0  0  0  0  0  2  0  0
    5.7430    0.0263    0.0000 C   0  0  0  0  0  0  0  0  0  3  0  0
    4.9869    1.3218    0.0000 C   0  0  0  0  0  0  0  0  0  4  0  0
    3.4870    1.3147    0.0000 C   0  0  0  0  0  0  0  0  0  5  0  0
    2.7431    0.0122    0.0000 C   0  0  0  0  0  0  0  0  0  6  0  0
    1.2431    0.0051    0.0000 C   0  0  0  0  0  0  0  0  0  7  0  0
    0.4870    1.3006    0.0000 C   0  0  0  0  0  0  0  0  0  8  0  0
    1.2309    2.6032    0.0000 C   0  0  0  0  0  0  0  0  0  9  0  0
    0.4748    3.8987    0.0000 O   0  0  0  0  0  0  0  0  0 10  0  0
    2.7309    2.6102    0.0000 O   0  0  0  0  0  0  0  0  0 11  0  0
    2.9041   -2.3253    0.0000 H   0  0  0  0  0  0  0  0  0  0  0  0
    9.3017   -2.0060    0.0000 C   0  0  0  0  0  0  0  0  0  0  0  0
    7.9991   -1.2621    0.0000 C   0  0  0  0  0  0  0  0  0  0  0  0
    7.2552   -2.5647    0.0000 C   0  0  0  0  0  0  0  0  0  0  0  0
    5.7553   -2.5717    0.0000 C   0  0  0  0  0  0  0  0  0  0  0  0
    7.2430    0.0334    0.0000 O   0  0  0  0  0  0  0  0  0  0  0  0
    9.2946   -0.5060    0.0000 C   0  0  0  0  0  0  0  0  0  0  0  0
    5.7308    2.6244    0.0000 O   0  0  0  0  0  0  0  0  0  0  0  0
    4.9747    3.9198    0.0000 C   0  0  0  0  0  0  0  0  0  0  0  0
   -0.7130    1.2950    0.0000 H   0  0  0  0  0  0  0  0  0  0  0  0
    0.4992   -1.2974    0.0000 C   0  0  0  0  0  0  0  0  0  0  0  0
   -1.0008   -1.3045    0.0000 C   0  0  0  0  0  0  0  0  0  0  0  0
   -1.7569   -0.0090    0.0000 O   0  0  0  0  0  0  0  0  0  0  0  0
   -1.7447   -2.6070    0.0000 C   0  0  0  0  0  0  0  0  0  0  0  0
  1  2  1  0  0  0  0
  1  6  2  0  0  0  0
  2  3  2  0  0  0  0
  3  4  1  0  0  0  0
  4  5  2  0  0  0  0
  5  6  1  0  0  0  0
  5 11  1  0  0  0  0
  6  7  1  0  0  0  0
  7  8  2  0  0  0  0
  8  9  1  0  0  0  0
  9 10  2  0  0  0  0
  9 11  1  0  0  0  0
  1 12  1  0  0  0  0
 13 14  1  0  0  0  0
 14 15  1  0  0  0  0
 14 17  1  0  0  0  0
 14 18  1  0  0  0  0
 15 16  2  0  0  0  0
  2 16  1  0  0  0  0
  3 17  1  0  0  0  0
 19 20  1  0  0  0  0
  4 19  1  0  0  0  0
  8 21  1  0  0  0  0
 22 23  1  0  0  0  0
 23 24  2  0  0  0  0
 23 25  1  0  0  0  0
  7 22  1  0  0  0  0
M  END
> <score_KierA3>
0.512375

$$$$
suggested molecule #383
 MOE2019            2D

 25 27  0  0  0  0  0  0  0  0999 V2000
    3.4992   -1.2833    0.0000 C   0  0  0  0  0  0  0  0  0  1  0  0
    4.9992   -1.2762    0.0000 C   0  0  0  0  0  0  0  0  0  2  0  0
    5.7430    0.0263    0.0000 C   0  0  0  0  0  0  0  0  0  3  0  0
    4.9869    1.3218    0.0000 C   0  0  0  0  0  0  0  0  0  4  0  0
    3.4870    1.3147    0.0000 C   0  0  0  0  0  0  0  0  0  5  0  0
    2.7431    0.0122    0.0000 C   0  0  0  0  0  0  0  0  0  6  0  0
    1.2431    0.0051    0.0000 C   0  0  0  0  0  0  0  0  0  7  0  0
    0.4870    1.3006    0.0000 C   0  0  0  0  0  0  0  0  0  8  0  0
    1.2309    2.6032    0.0000 C   0  0  0  0  0  0  0  0  0  9  0  0
    0.4748    3.8987    0.0000 O   0  0  0  0  0  0  0  0  0 10  0  0
    2.7309    2.6102    0.0000 O   0  0  0  0  0  0  0  0  0 11  0  0
    2.9041   -2.3253    0.0000 H   0  0  0  0  0  0  0  0  0  0  0  0
    9.3017   -2.0060    0.0000 C   0  0  0  0  0  0  0  0  0  0  0  0
    7.9991   -1.2621    0.0000 C   0  0  0  0  0  0  0  0  0  0  0  0
    7.2552   -2.5647    0.0000 C   0  0  0  0  0  0  0  0  0  0  0  0
    5.7553   -2.5717    0.0000 C   0  0  0  0  0  0  0  0  0  0  0  0
    7.2430    0.0334    0.0000 O   0  0  0  0  0  0  0  0  0  0  0  0
    9.2946   -0.5060    0.0000 C   0  0  0  0  0  0  0  0  0  0  0  0
    5.7308    2.6244    0.0000 O   0  0  0  0  0  0  0  0  0  0  0  0
    4.9747    3.9198    0.0000 C   0  0  0  0  0  0  0  0  0  0  0  0
   -0.7130    1.2950    0.0000 H   0  0  0  0  0  0  0  0  0  0  0  0
    0.4992   -1.2974    0.0000 C   0  0  0  0  0  0  0  0  0  0  0  0
   -1.0008   -1.3045    0.0000 C   0  0  0  0  0  0  0  0  0  0  0  0
   -1.7569   -0.0090    0.0000 O   0  0  0  0  0  0  0  0  0  0  0  0
   -1.7447   -2.6070    0.0000 C   0  0  0  0  0  0  0  0  0  0  0  0
  1  2  1  0  0  0  0
  1  6  2  0  0  0  0
  2  3  2  0  0  0  0
  3  4  1  0  0  0  0
  4  5  2  0  0  0  0
  5  6  1  0  0  0  0
  5 11  1  0  0  0  0
  6  7  1  0  0  0  0
  7  8  2  0  0  0  0
  8  9  1  0  0  0  0
  9 10  2  0  0  0  0
  9 11  1  0  0  0  0
  1 12  1  0  0  0  0
 13 14  1  0  0  0  0
 14 15  1  0  0  0  0
 14 17  1  0  0  0  0
 14 18  1  0  0  0  0
 15 16  2  0  0  0  0
  2 16  1  0  0  0  0
  3 17  1  0  0  0  0
 19 20  1  0  0  0  0
  4 19  1  0  0  0  0
  8 21  1  0  0  0  0
 22 23  1  0  0  0  0
 23 24  2  0  0  0  0
 23 25  1  0  0  0  0
  7 22  1  0  0  0  0
M  END
> <score_KierFlex>
0.516498

$$$$
suggested molecule #384
 MOE2019            2D

 22 24  0  0  0  0  0  0  0  0999 V2000
    3.4992   -1.2833    0.0000 C   0  0  0  0  0  0  0  0  0  1  0  0
    4.9992   -1.2762    0.0000 C   0  0  0  0  0  0  0  0  0  2  0  0
    5.7430    0.0263    0.0000 C   0  0  0  0  0  0  0  0  0  3  0  0
    4.9869    1.3218    0.0000 C   0  0  0  0  0  0  0  0  0  4  0  0
    3.4870    1.3147    0.0000 C   0  0  0  0  0  0  0  0  0  5  0  0
    2.7431    0.0122    0.0000 C   0  0  0  0  0  0  0  0  0  6  0  0
    1.2431    0.0051    0.0000 C   0  0  0  0  0  0  0  0  0  7  0  0
    0.4870    1.3006    0.0000 C   0  0  0  0  0  0  0  0  0  8  0  0
    1.2309    2.6032    0.0000 C   0  0  0  0  0  0  0  0  0  9  0  0
    0.4748    3.8987    0.0000 O   0  0  0  0  0  0  0  0  0 10  0  0
    2.7309    2.6102    0.0000 O   0  0  0  0  0  0  0  0  0 11  0  0
    2.9041   -2.3253    0.0000 H   0  0  0  0  0  0  0  0  0  0  0  0
    9.3017   -2.0060    0.0000 C   0  0  0  0  0  0  0  0  0  0  0  0
    7.9991   -1.2621    0.0000 C   0  0  0  0  0  0  0  0  0  0  0  0
    7.2552   -2.5647    0.0000 C   0  0  0  0  0  0  0  0  0  0  0  0
    5.7553   -2.5717    0.0000 C   0  0  0  0  0  0  0  0  0  0  0  0
    7.2430    0.0334    0.0000 O   0  0  0  0  0  0  0  0  0  0  0  0
    9.2946   -0.5060    0.0000 C   0  0  0  0  0  0  0  0  0  0  0  0
    5.7308    2.6244    0.0000 O   0  0  0  0  0  0  0  0  0  0  0  0
    4.9747    3.9198    0.0000 C   0  0  0  0  0  0  0  0  0  0  0  0
   -0.7130    1.2950    0.0000 H   0  0  0  0  0  0  0  0  0  0  0  0
    0.4992   -1.2974    0.0000 C   0  0  0  0  0  0  0  0  0  0  0  0
  1  2  1  0  0  0  0
  1  6  2  0  0  0  0
  2  3  2  0  0  0  0
  3  4  1  0  0  0  0
  4  5  2  0  0  0  0
  5  6  1  0  0  0  0
  5 11  1  0  0  0  0
  6  7  1  0  0  0  0
  7  8  2  0  0  0  0
  8  9  1  0  0  0  0
  9 10  2  0  0  0  0
  9 11  1  0  0  0  0
  1 12  1  0  0  0  0
 13 14  1  0  0  0  0
 14 15  1  0  0  0  0
 14 17  1  0  0  0  0
 14 18  1  0  0  0  0
 15 16  2  0  0  0  0
  2 16  1  0  0  0  0
  3 17  1  0  0  0  0
 19 20  1  0  0  0  0
  4 19  1  0  0  0  0
  8 21  1  0  0  0  0
  7 22  1  0  0  0  0
M  END
> <score_Kier1>
0.518107

$$$$
suggested molecule #385
 MOE2019            2D

 22 24  0  0  0  0  0  0  0  0999 V2000
    3.4992   -1.2833    0.0000 C   0  0  0  0  0  0  0  0  0  1  0  0
    4.9992   -1.2762    0.0000 C   0  0  0  0  0  0  0  0  0  2  0  0
    5.7430    0.0263    0.0000 C   0  0  0  0  0  0  0  0  0  3  0  0
    4.9869    1.3218    0.0000 C   0  0  0  0  0  0  0  0  0  4  0  0
    3.4870    1.3147    0.0000 C   0  0  0  0  0  0  0  0  0  5  0  0
    2.7431    0.0122    0.0000 C   0  0  0  0  0  0  0  0  0  6  0  0
    1.2431    0.0051    0.0000 C   0  0  0  0  0  0  0  0  0  7  0  0
    0.4870    1.3006    0.0000 C   0  0  0  0  0  0  0  0  0  8  0  0
    1.2309    2.6032    0.0000 C   0  0  0  0  0  0  0  0  0  9  0  0
    0.4748    3.8987    0.0000 O   0  0  0  0  0  0  0  0  0 10  0  0
    2.7309    2.6102    0.0000 O   0  0  0  0  0  0  0  0  0 11  0  0
    2.9041   -2.3253    0.0000 H   0  0  0  0  0  0  0  0  0  0  0  0
    9.3017   -2.0060    0.0000 C   0  0  0  0  0  0  0  0  0  0  0  0
    7.9991   -1.2621    0.0000 C   0  0  0  0  0  0  0  0  0  0  0  0
    7.2552   -2.5647    0.0000 C   0  0  0  0  0  0  0  0  0  0  0  0
    5.7553   -2.5717    0.0000 C   0  0  0  0  0  0  0  0  0  0  0  0
    7.2430    0.0334    0.0000 O   0  0  0  0  0  0  0  0  0  0  0  0
    9.2946   -0.5060    0.0000 C   0  0  0  0  0  0  0  0  0  0  0  0
    5.7308    2.6244    0.0000 O   0  0  0  0  0  0  0  0  0  0  0  0
    4.9747    3.9198    0.0000 C   0  0  0  0  0  0  0  0  0  0  0  0
   -0.7130    1.2950    0.0000 H   0  0  0  0  0  0  0  0  0  0  0  0
    0.4992   -1.2974    0.0000 C   0  0  0  0  0  0  0  0  0  0  0  0
  1  2  1  0  0  0  0
  1  6  2  0  0  0  0
  2  3  2  0  0  0  0
  3  4  1  0  0  0  0
  4  5  2  0  0  0  0
  5  6  1  0  0  0  0
  5 11  1  0  0  0  0
  6  7  1  0  0  0  0
  7  8  2  0  0  0  0
  8  9  1  0  0  0  0
  9 10  2  0  0  0  0
  9 11  1  0  0  0  0
  1 12  1  0  0  0  0
 13 14  1  0  0  0  0
 14 15  1  0  0  0  0
 14 17  1  0  0  0  0
 14 18  1  0  0  0  0
 15 16  2  0  0  0  0
  2 16  1  0  0  0  0
  3 17  1  0  0  0  0
 19 20  1  0  0  0  0
  4 19  1  0  0  0  0
  8 21  1  0  0  0  0
  7 22  1  0  0  0  0
M  END
> <score_Kier2>
0.516835

$$$$
suggested molecule #386
 MOE2019            2D

 22 24  0  0  0  0  0  0  0  0999 V2000
    3.4992   -1.2833    0.0000 C   0  0  0  0  0  0  0  0  0  1  0  0
    4.9992   -1.2762    0.0000 C   0  0  0  0  0  0  0  0  0  2  0  0
    5.7430    0.0263    0.0000 C   0  0  0  0  0  0  0  0  0  3  0  0
    4.9869    1.3218    0.0000 C   0  0  0  0  0  0  0  0  0  4  0  0
    3.4870    1.3147    0.0000 C   0  0  0  0  0  0  0  0  0  5  0  0
    2.7431    0.0122    0.0000 C   0  0  0  0  0  0  0  0  0  6  0  0
    1.2431    0.0051    0.0000 C   0  0  0  0  0  0  0  0  0  7  0  0
    0.4870    1.3006    0.0000 C   0  0  0  0  0  0  0  0  0  8  0  0
    1.2309    2.6032    0.0000 C   0  0  0  0  0  0  0  0  0  9  0  0
    0.4748    3.8987    0.0000 O   0  0  0  0  0  0  0  0  0 10  0  0
    2.7309    2.6102    0.0000 O   0  0  0  0  0  0  0  0  0 11  0  0
    2.9041   -2.3253    0.0000 H   0  0  0  0  0  0  0  0  0  0  0  0
    9.3017   -2.0060    0.0000 C   0  0  0  0  0  0  0  0  0  0  0  0
    7.9991   -1.2621    0.0000 C   0  0  0  0  0  0  0  0  0  0  0  0
    7.2552   -2.5647    0.0000 C   0  0  0  0  0  0  0  0  0  0  0  0
    5.7553   -2.5717    0.0000 C   0  0  0  0  0  0  0  0  0  0  0  0
    7.2430    0.0334    0.0000 O   0  0  0  0  0  0  0  0  0  0  0  0
    9.2946   -0.5060    0.0000 C   0  0  0  0  0  0  0  0  0  0  0  0
    5.7308    2.6244    0.0000 O   0  0  0  0  0  0  0  0  0  0  0  0
    4.9747    3.9198    0.0000 C   0  0  0  0  0  0  0  0  0  0  0  0
   -0.7130    1.2950    0.0000 H   0  0  0  0  0  0  0  0  0  0  0  0
    0.4992   -1.2974    0.0000 C   0  0  0  0  0  0  0  0  0  0  0  0
  1  2  1  0  0  0  0
  1  6  2  0  0  0  0
  2  3  2  0  0  0  0
  3  4  1  0  0  0  0
  4  5  2  0  0  0  0
  5  6  1  0  0  0  0
  5 11  1  0  0  0  0
  6  7  1  0  0  0  0
  7  8  2  0  0  0  0
  8  9  1  0  0  0  0
  9 10  2  0  0  0  0
  9 11  1  0  0  0  0
  1 12  1  0  0  0  0
 13 14  1  0  0  0  0
 14 15  1  0  0  0  0
 14 17  1  0  0  0  0
 14 18  1  0  0  0  0
 15 16  2  0  0  0  0
  2 16  1  0  0  0  0
  3 17  1  0  0  0  0
 19 20  1  0  0  0  0
  4 19  1  0  0  0  0
  8 21  1  0  0  0  0
  7 22  1  0  0  0  0
M  END
> <score_Kier3>
0.512131

$$$$
suggested molecule #387
 MOE2019            2D

 22 24  0  0  0  0  0  0  0  0999 V2000
    3.4992   -1.2833    0.0000 C   0  0  0  0  0  0  0  0  0  1  0  0
    4.9992   -1.2762    0.0000 C   0  0  0  0  0  0  0  0  0  2  0  0
    5.7430    0.0263    0.0000 C   0  0  0  0  0  0  0  0  0  3  0  0
    4.9869    1.3218    0.0000 C   0  0  0  0  0  0  0  0  0  4  0  0
    3.4870    1.3147    0.0000 C   0  0  0  0  0  0  0  0  0  5  0  0
    2.7431    0.0122    0.0000 C   0  0  0  0  0  0  0  0  0  6  0  0
    1.2431    0.0051    0.0000 C   0  0  0  0  0  0  0  0  0  7  0  0
    0.4870    1.3006    0.0000 C   0  0  0  0  0  0  0  0  0  8  0  0
    1.2309    2.6032    0.0000 C   0  0  0  0  0  0  0  0  0  9  0  0
    0.4748    3.8987    0.0000 O   0  0  0  0  0  0  0  0  0 10  0  0
    2.7309    2.6102    0.0000 O   0  0  0  0  0  0  0  0  0 11  0  0
    2.9041   -2.3253    0.0000 H   0  0  0  0  0  0  0  0  0  0  0  0
    9.3017   -2.0060    0.0000 C   0  0  0  0  0  0  0  0  0  0  0  0
    7.9991   -1.2621    0.0000 C   0  0  0  0  0  0  0  0  0  0  0  0
    7.2552   -2.5647    0.0000 C   0  0  0  0  0  0  0  0  0  0  0  0
    5.7553   -2.5717    0.0000 C   0  0  0  0  0  0  0  0  0  0  0  0
    7.2430    0.0334    0.0000 O   0  0  0  0  0  0  0  0  0  0  0  0
    9.2946   -0.5060    0.0000 C   0  0  0  0  0  0  0  0  0  0  0  0
    5.7308    2.6244    0.0000 O   0  0  0  0  0  0  0  0  0  0  0  0
    4.9747    3.9198    0.0000 C   0  0  0  0  0  0  0  0  0  0  0  0
   -0.7130    1.2950    0.0000 H   0  0  0  0  0  0  0  0  0  0  0  0
    0.4992   -1.2974    0.0000 C   0  0  0  0  0  0  0  0  0  0  0  0
  1  2  1  0  0  0  0
  1  6  2  0  0  0  0
  2  3  2  0  0  0  0
  3  4  1  0  0  0  0
  4  5  2  0  0  0  0
  5  6  1  0  0  0  0
  5 11  1  0  0  0  0
  6  7  1  0  0  0  0
  7  8  2  0  0  0  0
  8  9  1  0  0  0  0
  9 10  2  0  0  0  0
  9 11  1  0  0  0  0
  1 12  1  0  0  0  0
 13 14  1  0  0  0  0
 14 15  1  0  0  0  0
 14 17  1  0  0  0  0
 14 18  1  0  0  0  0
 15 16  2  0  0  0  0
  2 16  1  0  0  0  0
  3 17  1  0  0  0  0
 19 20  1  0  0  0  0
  4 19  1  0  0  0  0
  8 21  1  0  0  0  0
  7 22  1  0  0  0  0
M  END
> <score_KierA1>
0.518168

$$$$
suggested molecule #388
 MOE2019            2D

 22 24  0  0  0  0  0  0  0  0999 V2000
    3.4992   -1.2833    0.0000 C   0  0  0  0  0  0  0  0  0  1  0  0
    4.9992   -1.2762    0.0000 C   0  0  0  0  0  0  0  0  0  2  0  0
    5.7430    0.0263    0.0000 C   0  0  0  0  0  0  0  0  0  3  0  0
    4.9869    1.3218    0.0000 C   0  0  0  0  0  0  0  0  0  4  0  0
    3.4870    1.3147    0.0000 C   0  0  0  0  0  0  0  0  0  5  0  0
    2.7431    0.0122    0.0000 C   0  0  0  0  0  0  0  0  0  6  0  0
    1.2431    0.0051    0.0000 C   0  0  0  0  0  0  0  0  0  7  0  0
    0.4870    1.3006    0.0000 C   0  0  0  0  0  0  0  0  0  8  0  0
    1.2309    2.6032    0.0000 C   0  0  0  0  0  0  0  0  0  9  0  0
    0.4748    3.8987    0.0000 O   0  0  0  0  0  0  0  0  0 10  0  0
    2.7309    2.6102    0.0000 O   0  0  0  0  0  0  0  0  0 11  0  0
    2.9041   -2.3253    0.0000 H   0  0  0  0  0  0  0  0  0  0  0  0
    9.3017   -2.0060    0.0000 C   0  0  0  0  0  0  0  0  0  0  0  0
    7.9991   -1.2621    0.0000 C   0  0  0  0  0  0  0  0  0  0  0  0
    7.2552   -2.5647    0.0000 C   0  0  0  0  0  0  0  0  0  0  0  0
    5.7553   -2.5717    0.0000 C   0  0  0  0  0  0  0  0  0  0  0  0
    7.2430    0.0334    0.0000 O   0  0  0  0  0  0  0  0  0  0  0  0
    9.2946   -0.5060    0.0000 C   0  0  0  0  0  0  0  0  0  0  0  0
    5.7308    2.6244    0.0000 O   0  0  0  0  0  0  0  0  0  0  0  0
    4.9747    3.9198    0.0000 C   0  0  0  0  0  0  0  0  0  0  0  0
   -0.7130    1.2950    0.0000 H   0  0  0  0  0  0  0  0  0  0  0  0
    0.4992   -1.2974    0.0000 C   0  0  0  0  0  0  0  0  0  0  0  0
  1  2  1  0  0  0  0
  1  6  2  0  0  0  0
  2  3  2  0  0  0  0
  3  4  1  0  0  0  0
  4  5  2  0  0  0  0
  5  6  1  0  0  0  0
  5 11  1  0  0  0  0
  6  7  1  0  0  0  0
  7  8  2  0  0  0  0
  8  9  1  0  0  0  0
  9 10  2  0  0  0  0
  9 11  1  0  0  0  0
  1 12  1  0  0  0  0
 13 14  1  0  0  0  0
 14 15  1  0  0  0  0
 14 17  1  0  0  0  0
 14 18  1  0  0  0  0
 15 16  2  0  0  0  0
  2 16  1  0  0  0  0
  3 17  1  0  0  0  0
 19 20  1  0  0  0  0
  4 19  1  0  0  0  0
  8 21  1  0  0  0  0
  7 22  1  0  0  0  0
M  END
> <score_KierA2>
0.517251

$$$$
suggested molecule #389
 MOE2019            2D

 22 24  0  0  0  0  0  0  0  0999 V2000
    3.4992   -1.2833    0.0000 C   0  0  0  0  0  0  0  0  0  1  0  0
    4.9992   -1.2762    0.0000 C   0  0  0  0  0  0  0  0  0  2  0  0
    5.7430    0.0263    0.0000 C   0  0  0  0  0  0  0  0  0  3  0  0
    4.9869    1.3218    0.0000 C   0  0  0  0  0  0  0  0  0  4  0  0
    3.4870    1.3147    0.0000 C   0  0  0  0  0  0  0  0  0  5  0  0
    2.7431    0.0122    0.0000 C   0  0  0  0  0  0  0  0  0  6  0  0
    1.2431    0.0051    0.0000 C   0  0  0  0  0  0  0  0  0  7  0  0
    0.4870    1.3006    0.0000 C   0  0  0  0  0  0  0  0  0  8  0  0
    1.2309    2.6032    0.0000 C   0  0  0  0  0  0  0  0  0  9  0  0
    0.4748    3.8987    0.0000 O   0  0  0  0  0  0  0  0  0 10  0  0
    2.7309    2.6102    0.0000 O   0  0  0  0  0  0  0  0  0 11  0  0
    2.9041   -2.3253    0.0000 H   0  0  0  0  0  0  0  0  0  0  0  0
    9.3017   -2.0060    0.0000 C   0  0  0  0  0  0  0  0  0  0  0  0
    7.9991   -1.2621    0.0000 C   0  0  0  0  0  0  0  0  0  0  0  0
    7.2552   -2.5647    0.0000 C   0  0  0  0  0  0  0  0  0  0  0  0
    5.7553   -2.5717    0.0000 C   0  0  0  0  0  0  0  0  0  0  0  0
    7.2430    0.0334    0.0000 O   0  0  0  0  0  0  0  0  0  0  0  0
    9.2946   -0.5060    0.0000 C   0  0  0  0  0  0  0  0  0  0  0  0
    5.7308    2.6244    0.0000 O   0  0  0  0  0  0  0  0  0  0  0  0
    4.9747    3.9198    0.0000 C   0  0  0  0  0  0  0  0  0  0  0  0
   -0.7130    1.2950    0.0000 H   0  0  0  0  0  0  0  0  0  0  0  0
    0.4992   -1.2974    0.0000 C   0  0  0  0  0  0  0  0  0  0  0  0
  1  2  1  0  0  0  0
  1  6  2  0  0  0  0
  2  3  2  0  0  0  0
  3  4  1  0  0  0  0
  4  5  2  0  0  0  0
  5  6  1  0  0  0  0
  5 11  1  0  0  0  0
  6  7  1  0  0  0  0
  7  8  2  0  0  0  0
  8  9  1  0  0  0  0
  9 10  2  0  0  0  0
  9 11  1  0  0  0  0
  1 12  1  0  0  0  0
 13 14  1  0  0  0  0
 14 15  1  0  0  0  0
 14 17  1  0  0  0  0
 14 18  1  0  0  0  0
 15 16  2  0  0  0  0
  2 16  1  0  0  0  0
  3 17  1  0  0  0  0
 19 20  1  0  0  0  0
  4 19  1  0  0  0  0
  8 21  1  0  0  0  0
  7 22  1  0  0  0  0
M  END
> <score_KierA3>
0.512873

$$$$
suggested molecule #390
 MOE2019            2D

 22 24  0  0  0  0  0  0  0  0999 V2000
    3.4992   -1.2833    0.0000 C   0  0  0  0  0  0  0  0  0  1  0  0
    4.9992   -1.2762    0.0000 C   0  0  0  0  0  0  0  0  0  2  0  0
    5.7430    0.0263    0.0000 C   0  0  0  0  0  0  0  0  0  3  0  0
    4.9869    1.3218    0.0000 C   0  0  0  0  0  0  0  0  0  4  0  0
    3.4870    1.3147    0.0000 C   0  0  0  0  0  0  0  0  0  5  0  0
    2.7431    0.0122    0.0000 C   0  0  0  0  0  0  0  0  0  6  0  0
    1.2431    0.0051    0.0000 C   0  0  0  0  0  0  0  0  0  7  0  0
    0.4870    1.3006    0.0000 C   0  0  0  0  0  0  0  0  0  8  0  0
    1.2309    2.6032    0.0000 C   0  0  0  0  0  0  0  0  0  9  0  0
    0.4748    3.8987    0.0000 O   0  0  0  0  0  0  0  0  0 10  0  0
    2.7309    2.6102    0.0000 O   0  0  0  0  0  0  0  0  0 11  0  0
    2.9041   -2.3253    0.0000 H   0  0  0  0  0  0  0  0  0  0  0  0
    9.3017   -2.0060    0.0000 C   0  0  0  0  0  0  0  0  0  0  0  0
    7.9991   -1.2621    0.0000 C   0  0  0  0  0  0  0  0  0  0  0  0
    7.2552   -2.5647    0.0000 C   0  0  0  0  0  0  0  0  0  0  0  0
    5.7553   -2.5717    0.0000 C   0  0  0  0  0  0  0  0  0  0  0  0
    7.2430    0.0334    0.0000 O   0  0  0  0  0  0  0  0  0  0  0  0
    9.2946   -0.5060    0.0000 C   0  0  0  0  0  0  0  0  0  0  0  0
    5.7308    2.6244    0.0000 O   0  0  0  0  0  0  0  0  0  0  0  0
    4.9747    3.9198    0.0000 C   0  0  0  0  0  0  0  0  0  0  0  0
   -0.7130    1.2950    0.0000 H   0  0  0  0  0  0  0  0  0  0  0  0
    0.4992   -1.2974    0.0000 C   0  0  0  0  0  0  0  0  0  0  0  0
  1  2  1  0  0  0  0
  1  6  2  0  0  0  0
  2  3  2  0  0  0  0
  3  4  1  0  0  0  0
  4  5  2  0  0  0  0
  5  6  1  0  0  0  0
  5 11  1  0  0  0  0
  6  7  1  0  0  0  0
  7  8  2  0  0  0  0
  8  9  1  0  0  0  0
  9 10  2  0  0  0  0
  9 11  1  0  0  0  0
  1 12  1  0  0  0  0
 13 14  1  0  0  0  0
 14 15  1  0  0  0  0
 14 17  1  0  0  0  0
 14 18  1  0  0  0  0
 15 16  2  0  0  0  0
  2 16  1  0  0  0  0
  3 17  1  0  0  0  0
 19 20  1  0  0  0  0
  4 19  1  0  0  0  0
  8 21  1  0  0  0  0
  7 22  1  0  0  0  0
M  END
> <score_KierFlex>
0.517037

$$$$
suggested molecule #391
 MOE2019            2D

 33 36  0  0  1  0  0  0  0  0999 V2000
    3.4992   -1.2833    0.0000 C   0  0  0  0  0  0  0  0  0  1  0  0
    4.9992   -1.2762    0.0000 C   0  0  0  0  0  0  0  0  0  2  0  0
    5.7430    0.0263    0.0000 C   0  0  0  0  0  0  0  0  0  3  0  0
    4.9869    1.3218    0.0000 C   0  0  0  0  0  0  0  0  0  4  0  0
    3.4870    1.3147    0.0000 C   0  0  0  0  0  0  0  0  0  5  0  0
    2.7431    0.0122    0.0000 C   0  0  0  0  0  0  0  0  0  6  0  0
    1.2431    0.0051    0.0000 C   0  0  0  0  0  0  0  0  0  7  0  0
    0.4870    1.3006    0.0000 C   0  0  0  0  0  0  0  0  0  8  0  0
    1.2309    2.6032    0.0000 C   0  0  0  0  0  0  0  0  0  9  0  0
    0.4748    3.8987    0.0000 O   0  0  0  0  0  0  0  0  0 10  0  0
    2.7309    2.6102    0.0000 O   0  0  0  0  0  0  0  0  0 11  0  0
    2.9041   -2.3253    0.0000 H   0  0  0  0  0  0  0  0  0  0  0  0
    9.3017   -2.0060    0.0000 C   0  0  0  0  0  0  0  0  0  0  0  0
    7.9991   -1.2621    0.0000 C   0  0  0  0  0  0  0  0  0  0  0  0
    7.2552   -2.5647    0.0000 C   0  0  0  0  0  0  0  0  0  0  0  0
    5.7553   -2.5717    0.0000 C   0  0  0  0  0  0  0  0  0  0  0  0
    7.2430    0.0334    0.0000 O   0  0  0  0  0  0  0  0  0  0  0  0
    9.2946   -0.5060    0.0000 C   0  0  0  0  0  0  0  0  0  0  0  0
    5.7308    2.6244    0.0000 O   0  0  0  0  0  0  0  0  0  0  0  0
    4.9747    3.9198    0.0000 C   0  0  0  0  0  0  0  0  0  0  0  0
   -0.7130    1.2950    0.0000 H   0  0  0  0  0  0  0  0  0  0  0  0
    0.4992   -1.2974    0.0000 O   0  0  0  0  0  0  0  0  0  0  0  0
   -1.0008   -1.3045    0.0000 C   0  0  1  0  0  0  0  0  0  0  0  0
   -1.7447   -2.6070    0.0000 C   0  0  1  0  0  0  0  0  0  0  0  0
   -3.2446   -2.6141    0.0000 C   0  0  2  0  0  0  0  0  0  0  0  0
   -4.0007   -1.3186    0.0000 C   0  0  1  0  0  0  0  0  0  0  0  0
   -3.2569   -0.0160    0.0000 C   0  0  2  0  0  0  0  0  0  0  0  0
   -1.7569   -0.0090    0.0000 O   0  0  0  0  0  0  0  0  0  0  0  0
   -4.0130    1.2795    0.0000 C   0  0  0  0  0  0  0  0  0  0  0  0
   -5.5129    1.2724    0.0000 O   0  0  0  0  0  0  0  0  0  0  0  0
   -5.5007   -1.3256    0.0000 O   0  0  0  0  0  0  0  0  0  0  0  0
   -3.9885   -3.9166    0.0000 O   0  0  0  0  0  0  0  0  0  0  0  0
   -0.9886   -3.9025    0.0000 O   0  0  0  0  0  0  0  0  0  0  0  0
  1  2  2  0  0  0  0
  1  6  1  0  0  0  0
  2  3  1  0  0  0  0
  3  4  2  0  0  0  0
  4  5  1  0  0  0  0
  5  6  2  0  0  0  0
  5 11  1  0  0  0  0
  6  7  1  0  0  0  0
  7  8  2  0  0  0  0
  8  9  1  0  0  0  0
  9 10  2  0  0  0  0
  9 11  1  0  0  0  0
  1 12  1  0  0  0  0
 13 14  1  0  0  0  0
 14 15  1  0  0  0  0
 14 17  1  0  0  0  0
 14 18  1  0  0  0  0
 15 16  2  0  0  0  0
  2 16  1  0  0  0  0
  3 17  1  0  0  0  0
 19 20  1  0  0  0  0
  4 19  1  0  0  0  0
  8 21  1  0  0  0  0
 23 22  1  6  0  0  0
 23 24  1  0  0  0  0
 23 28  1  0  0  0  0
 24 25  1  0  0  0  0
 24 33  1  1  0  0  0
 25 26  1  0  0  0  0
 25 32  1  6  0  0  0
 26 27  1  0  0  0  0
 26 31  1  1  0  0  0
 27 28  1  0  0  0  0
 27 29  1  6  0  0  0
 29 30  1  0  0  0  0
  7 22  1  0  0  0  0
M  END
> <score_Kier1>
0.517738

$$$$
suggested molecule #392
 MOE2019            2D

 33 36  0  0  1  0  0  0  0  0999 V2000
    3.4992   -1.2833    0.0000 C   0  0  0  0  0  0  0  0  0  1  0  0
    4.9992   -1.2762    0.0000 C   0  0  0  0  0  0  0  0  0  2  0  0
    5.7430    0.0263    0.0000 C   0  0  0  0  0  0  0  0  0  3  0  0
    4.9869    1.3218    0.0000 C   0  0  0  0  0  0  0  0  0  4  0  0
    3.4870    1.3147    0.0000 C   0  0  0  0  0  0  0  0  0  5  0  0
    2.7431    0.0122    0.0000 C   0  0  0  0  0  0  0  0  0  6  0  0
    1.2431    0.0051    0.0000 C   0  0  0  0  0  0  0  0  0  7  0  0
    0.4870    1.3006    0.0000 C   0  0  0  0  0  0  0  0  0  8  0  0
    1.2309    2.6032    0.0000 C   0  0  0  0  0  0  0  0  0  9  0  0
    0.4748    3.8987    0.0000 O   0  0  0  0  0  0  0  0  0 10  0  0
    2.7309    2.6102    0.0000 O   0  0  0  0  0  0  0  0  0 11  0  0
    2.9041   -2.3253    0.0000 H   0  0  0  0  0  0  0  0  0  0  0  0
    9.3017   -2.0060    0.0000 C   0  0  0  0  0  0  0  0  0  0  0  0
    7.9991   -1.2621    0.0000 C   0  0  0  0  0  0  0  0  0  0  0  0
    7.2552   -2.5647    0.0000 C   0  0  0  0  0  0  0  0  0  0  0  0
    5.7553   -2.5717    0.0000 C   0  0  0  0  0  0  0  0  0  0  0  0
    7.2430    0.0334    0.0000 O   0  0  0  0  0  0  0  0  0  0  0  0
    9.2946   -0.5060    0.0000 C   0  0  0  0  0  0  0  0  0  0  0  0
    5.7308    2.6244    0.0000 O   0  0  0  0  0  0  0  0  0  0  0  0
    4.9747    3.9198    0.0000 C   0  0  0  0  0  0  0  0  0  0  0  0
   -0.7130    1.2950    0.0000 H   0  0  0  0  0  0  0  0  0  0  0  0
    0.4992   -1.2974    0.0000 O   0  0  0  0  0  0  0  0  0  0  0  0
   -1.0008   -1.3045    0.0000 C   0  0  1  0  0  0  0  0  0  0  0  0
   -1.7447   -2.6070    0.0000 C   0  0  1  0  0  0  0  0  0  0  0  0
   -3.2446   -2.6141    0.0000 C   0  0  2  0  0  0  0  0  0  0  0  0
   -4.0007   -1.3186    0.0000 C   0  0  1  0  0  0  0  0  0  0  0  0
   -3.2569   -0.0160    0.0000 C   0  0  2  0  0  0  0  0  0  0  0  0
   -1.7569   -0.0090    0.0000 O   0  0  0  0  0  0  0  0  0  0  0  0
   -4.0130    1.2795    0.0000 C   0  0  0  0  0  0  0  0  0  0  0  0
   -5.5129    1.2724    0.0000 O   0  0  0  0  0  0  0  0  0  0  0  0
   -5.5007   -1.3256    0.0000 O   0  0  0  0  0  0  0  0  0  0  0  0
   -3.9885   -3.9166    0.0000 O   0  0  0  0  0  0  0  0  0  0  0  0
   -0.9886   -3.9025    0.0000 O   0  0  0  0  0  0  0  0  0  0  0  0
  1  2  2  0  0  0  0
  1  6  1  0  0  0  0
  2  3  1  0  0  0  0
  3  4  2  0  0  0  0
  4  5  1  0  0  0  0
  5  6  2  0  0  0  0
  5 11  1  0  0  0  0
  6  7  1  0  0  0  0
  7  8  2  0  0  0  0
  8  9  1  0  0  0  0
  9 10  2  0  0  0  0
  9 11  1  0  0  0  0
  1 12  1  0  0  0  0
 13 14  1  0  0  0  0
 14 15  1  0  0  0  0
 14 17  1  0  0  0  0
 14 18  1  0  0  0  0
 15 16  2  0  0  0  0
  2 16  1  0  0  0  0
  3 17  1  0  0  0  0
 19 20  1  0  0  0  0
  4 19  1  0  0  0  0
  8 21  1  0  0  0  0
 23 22  1  6  0  0  0
 23 24  1  0  0  0  0
 23 28  1  0  0  0  0
 24 25  1  0  0  0  0
 24 33  1  1  0  0  0
 25 26  1  0  0  0  0
 25 32  1  6  0  0  0
 26 27  1  0  0  0  0
 26 31  1  1  0  0  0
 27 28  1  0  0  0  0
 27 29  1  6  0  0  0
 29 30  1  0  0  0  0
  7 22  1  0  0  0  0
M  END
> <score_Kier3>
0.511745

$$$$
suggested molecule #393
 MOE2019            2D

 33 36  0  0  1  0  0  0  0  0999 V2000
    3.4992   -1.2833    0.0000 C   0  0  0  0  0  0  0  0  0  1  0  0
    4.9992   -1.2762    0.0000 C   0  0  0  0  0  0  0  0  0  2  0  0
    5.7430    0.0263    0.0000 C   0  0  0  0  0  0  0  0  0  3  0  0
    4.9869    1.3218    0.0000 C   0  0  0  0  0  0  0  0  0  4  0  0
    3.4870    1.3147    0.0000 C   0  0  0  0  0  0  0  0  0  5  0  0
    2.7431    0.0122    0.0000 C   0  0  0  0  0  0  0  0  0  6  0  0
    1.2431    0.0051    0.0000 C   0  0  0  0  0  0  0  0  0  7  0  0
    0.4870    1.3006    0.0000 C   0  0  0  0  0  0  0  0  0  8  0  0
    1.2309    2.6032    0.0000 C   0  0  0  0  0  0  0  0  0  9  0  0
    0.4748    3.8987    0.0000 O   0  0  0  0  0  0  0  0  0 10  0  0
    2.7309    2.6102    0.0000 O   0  0  0  0  0  0  0  0  0 11  0  0
    2.9041   -2.3253    0.0000 H   0  0  0  0  0  0  0  0  0  0  0  0
    9.3017   -2.0060    0.0000 C   0  0  0  0  0  0  0  0  0  0  0  0
    7.9991   -1.2621    0.0000 C   0  0  0  0  0  0  0  0  0  0  0  0
    7.2552   -2.5647    0.0000 C   0  0  0  0  0  0  0  0  0  0  0  0
    5.7553   -2.5717    0.0000 C   0  0  0  0  0  0  0  0  0  0  0  0
    7.2430    0.0334    0.0000 O   0  0  0  0  0  0  0  0  0  0  0  0
    9.2946   -0.5060    0.0000 C   0  0  0  0  0  0  0  0  0  0  0  0
    5.7308    2.6244    0.0000 O   0  0  0  0  0  0  0  0  0  0  0  0
    4.9747    3.9198    0.0000 C   0  0  0  0  0  0  0  0  0  0  0  0
   -0.7130    1.2950    0.0000 H   0  0  0  0  0  0  0  0  0  0  0  0
    0.4992   -1.2974    0.0000 O   0  0  0  0  0  0  0  0  0  0  0  0
   -1.0008   -1.3045    0.0000 C   0  0  1  0  0  0  0  0  0  0  0  0
   -1.7447   -2.6070    0.0000 C   0  0  1  0  0  0  0  0  0  0  0  0
   -3.2446   -2.6141    0.0000 C   0  0  2  0  0  0  0  0  0  0  0  0
   -4.0007   -1.3186    0.0000 C   0  0  1  0  0  0  0  0  0  0  0  0
   -3.2569   -0.0160    0.0000 C   0  0  2  0  0  0  0  0  0  0  0  0
   -1.7569   -0.0090    0.0000 O   0  0  0  0  0  0  0  0  0  0  0  0
   -4.0130    1.2795    0.0000 C   0  0  0  0  0  0  0  0  0  0  0  0
   -5.5129    1.2724    0.0000 O   0  0  0  0  0  0  0  0  0  0  0  0
   -5.5007   -1.3256    0.0000 O   0  0  0  0  0  0  0  0  0  0  0  0
   -3.9885   -3.9166    0.0000 O   0  0  0  0  0  0  0  0  0  0  0  0
   -0.9886   -3.9025    0.0000 O   0  0  0  0  0  0  0  0  0  0  0  0
  1  2  2  0  0  0  0
  1  6  1  0  0  0  0
  2  3  1  0  0  0  0
  3  4  2  0  0  0  0
  4  5  1  0  0  0  0
  5  6  2  0  0  0  0
  5 11  1  0  0  0  0
  6  7  1  0  0  0  0
  7  8  2  0  0  0  0
  8  9  1  0  0  0  0
  9 10  2  0  0  0  0
  9 11  1  0  0  0  0
  1 12  1  0  0  0  0
 13 14  1  0  0  0  0
 14 15  1  0  0  0  0
 14 17  1  0  0  0  0
 14 18  1  0  0  0  0
 15 16  2  0  0  0  0
  2 16  1  0  0  0  0
  3 17  1  0  0  0  0
 19 20  1  0  0  0  0
  4 19  1  0  0  0  0
  8 21  1  0  0  0  0
 23 22  1  6  0  0  0
 23 24  1  0  0  0  0
 23 28  1  0  0  0  0
 24 25  1  0  0  0  0
 24 33  1  1  0  0  0
 25 26  1  0  0  0  0
 25 32  1  6  0  0  0
 26 27  1  0  0  0  0
 26 31  1  1  0  0  0
 27 28  1  0  0  0  0
 27 29  1  6  0  0  0
 29 30  1  0  0  0  0
  7 22  1  0  0  0  0
M  END
> <score_KierA1>
0.517775

$$$$
suggested molecule #394
 MOE2019            2D

 33 36  0  0  1  0  0  0  0  0999 V2000
    3.4992   -1.2833    0.0000 C   0  0  0  0  0  0  0  0  0  1  0  0
    4.9992   -1.2762    0.0000 C   0  0  0  0  0  0  0  0  0  2  0  0
    5.7430    0.0263    0.0000 C   0  0  0  0  0  0  0  0  0  3  0  0
    4.9869    1.3218    0.0000 C   0  0  0  0  0  0  0  0  0  4  0  0
    3.4870    1.3147    0.0000 C   0  0  0  0  0  0  0  0  0  5  0  0
    2.7431    0.0122    0.0000 C   0  0  0  0  0  0  0  0  0  6  0  0
    1.2431    0.0051    0.0000 C   0  0  0  0  0  0  0  0  0  7  0  0
    0.4870    1.3006    0.0000 C   0  0  0  0  0  0  0  0  0  8  0  0
    1.2309    2.6032    0.0000 C   0  0  0  0  0  0  0  0  0  9  0  0
    0.4748    3.8987    0.0000 O   0  0  0  0  0  0  0  0  0 10  0  0
    2.7309    2.6102    0.0000 O   0  0  0  0  0  0  0  0  0 11  0  0
    2.9041   -2.3253    0.0000 H   0  0  0  0  0  0  0  0  0  0  0  0
    9.3017   -2.0060    0.0000 C   0  0  0  0  0  0  0  0  0  0  0  0
    7.9991   -1.2621    0.0000 C   0  0  0  0  0  0  0  0  0  0  0  0
    7.2552   -2.5647    0.0000 C   0  0  0  0  0  0  0  0  0  0  0  0
    5.7553   -2.5717    0.0000 C   0  0  0  0  0  0  0  0  0  0  0  0
    7.2430    0.0334    0.0000 O   0  0  0  0  0  0  0  0  0  0  0  0
    9.2946   -0.5060    0.0000 C   0  0  0  0  0  0  0  0  0  0  0  0
    5.7308    2.6244    0.0000 O   0  0  0  0  0  0  0  0  0  0  0  0
    4.9747    3.9198    0.0000 C   0  0  0  0  0  0  0  0  0  0  0  0
   -0.7130    1.2950    0.0000 H   0  0  0  0  0  0  0  0  0  0  0  0
    0.4992   -1.2974    0.0000 O   0  0  0  0  0  0  0  0  0  0  0  0
   -1.0008   -1.3045    0.0000 C   0  0  1  0  0  0  0  0  0  0  0  0
   -1.7447   -2.6070    0.0000 C   0  0  1  0  0  0  0  0  0  0  0  0
   -3.2446   -2.6141    0.0000 C   0  0  2  0  0  0  0  0  0  0  0  0
   -4.0007   -1.3186    0.0000 C   0  0  1  0  0  0  0  0  0  0  0  0
   -3.2569   -0.0160    0.0000 C   0  0  2  0  0  0  0  0  0  0  0  0
   -1.7569   -0.0090    0.0000 O   0  0  0  0  0  0  0  0  0  0  0  0
   -4.0130    1.2795    0.0000 C   0  0  0  0  0  0  0  0  0  0  0  0
   -5.5129    1.2724    0.0000 O   0  0  0  0  0  0  0  0  0  0  0  0
   -5.5007   -1.3256    0.0000 O   0  0  0  0  0  0  0  0  0  0  0  0
   -3.9885   -3.9166    0.0000 O   0  0  0  0  0  0  0  0  0  0  0  0
   -0.9886   -3.9025    0.0000 O   0  0  0  0  0  0  0  0  0  0  0  0
  1  2  2  0  0  0  0
  1  6  1  0  0  0  0
  2  3  1  0  0  0  0
  3  4  2  0  0  0  0
  4  5  1  0  0  0  0
  5  6  2  0  0  0  0
  5 11  1  0  0  0  0
  6  7  1  0  0  0  0
  7  8  2  0  0  0  0
  8  9  1  0  0  0  0
  9 10  2  0  0  0  0
  9 11  1  0  0  0  0
  1 12  1  0  0  0  0
 13 14  1  0  0  0  0
 14 15  1  0  0  0  0
 14 17  1  0  0  0  0
 14 18  1  0  0  0  0
 15 16  2  0  0  0  0
  2 16  1  0  0  0  0
  3 17  1  0  0  0  0
 19 20  1  0  0  0  0
  4 19  1  0  0  0  0
  8 21  1  0  0  0  0
 23 22  1  6  0  0  0
 23 24  1  0  0  0  0
 23 28  1  0  0  0  0
 24 25  1  0  0  0  0
 24 33  1  1  0  0  0
 25 26  1  0  0  0  0
 25 32  1  6  0  0  0
 26 27  1  0  0  0  0
 26 31  1  1  0  0  0
 27 28  1  0  0  0  0
 27 29  1  6  0  0  0
 29 30  1  0  0  0  0
  7 22  1  0  0  0  0
M  END
> <score_KierA2>
0.516835

$$$$
suggested molecule #395
 MOE2019            2D

 33 36  0  0  1  0  0  0  0  0999 V2000
    3.4992   -1.2833    0.0000 C   0  0  0  0  0  0  0  0  0  1  0  0
    4.9992   -1.2762    0.0000 C   0  0  0  0  0  0  0  0  0  2  0  0
    5.7430    0.0263    0.0000 C   0  0  0  0  0  0  0  0  0  3  0  0
    4.9869    1.3218    0.0000 C   0  0  0  0  0  0  0  0  0  4  0  0
    3.4870    1.3147    0.0000 C   0  0  0  0  0  0  0  0  0  5  0  0
    2.7431    0.0122    0.0000 C   0  0  0  0  0  0  0  0  0  6  0  0
    1.2431    0.0051    0.0000 C   0  0  0  0  0  0  0  0  0  7  0  0
    0.4870    1.3006    0.0000 C   0  0  0  0  0  0  0  0  0  8  0  0
    1.2309    2.6032    0.0000 C   0  0  0  0  0  0  0  0  0  9  0  0
    0.4748    3.8987    0.0000 O   0  0  0  0  0  0  0  0  0 10  0  0
    2.7309    2.6102    0.0000 O   0  0  0  0  0  0  0  0  0 11  0  0
    2.9041   -2.3253    0.0000 H   0  0  0  0  0  0  0  0  0  0  0  0
    9.3017   -2.0060    0.0000 C   0  0  0  0  0  0  0  0  0  0  0  0
    7.9991   -1.2621    0.0000 C   0  0  0  0  0  0  0  0  0  0  0  0
    7.2552   -2.5647    0.0000 C   0  0  0  0  0  0  0  0  0  0  0  0
    5.7553   -2.5717    0.0000 C   0  0  0  0  0  0  0  0  0  0  0  0
    7.2430    0.0334    0.0000 O   0  0  0  0  0  0  0  0  0  0  0  0
    9.2946   -0.5060    0.0000 C   0  0  0  0  0  0  0  0  0  0  0  0
    5.7308    2.6244    0.0000 O   0  0  0  0  0  0  0  0  0  0  0  0
    4.9747    3.9198    0.0000 C   0  0  0  0  0  0  0  0  0  0  0  0
   -0.7130    1.2950    0.0000 H   0  0  0  0  0  0  0  0  0  0  0  0
    0.4992   -1.2974    0.0000 O   0  0  0  0  0  0  0  0  0  0  0  0
   -1.0008   -1.3045    0.0000 C   0  0  1  0  0  0  0  0  0  0  0  0
   -1.7447   -2.6070    0.0000 C   0  0  1  0  0  0  0  0  0  0  0  0
   -3.2446   -2.6141    0.0000 C   0  0  2  0  0  0  0  0  0  0  0  0
   -4.0007   -1.3186    0.0000 C   0  0  1  0  0  0  0  0  0  0  0  0
   -3.2569   -0.0160    0.0000 C   0  0  2  0  0  0  0  0  0  0  0  0
   -1.7569   -0.0090    0.0000 O   0  0  0  0  0  0  0  0  0  0  0  0
   -4.0130    1.2795    0.0000 C   0  0  0  0  0  0  0  0  0  0  0  0
   -5.5129    1.2724    0.0000 O   0  0  0  0  0  0  0  0  0  0  0  0
   -5.5007   -1.3256    0.0000 O   0  0  0  0  0  0  0  0  0  0  0  0
   -3.9885   -3.9166    0.0000 O   0  0  0  0  0  0  0  0  0  0  0  0
   -0.9886   -3.9025    0.0000 O   0  0  0  0  0  0  0  0  0  0  0  0
  1  2  2  0  0  0  0
  1  6  1  0  0  0  0
  2  3  1  0  0  0  0
  3  4  2  0  0  0  0
  4  5  1  0  0  0  0
  5  6  2  0  0  0  0
  5 11  1  0  0  0  0
  6  7  1  0  0  0  0
  7  8  2  0  0  0  0
  8  9  1  0  0  0  0
  9 10  2  0  0  0  0
  9 11  1  0  0  0  0
  1 12  1  0  0  0  0
 13 14  1  0  0  0  0
 14 15  1  0  0  0  0
 14 17  1  0  0  0  0
 14 18  1  0  0  0  0
 15 16  2  0  0  0  0
  2 16  1  0  0  0  0
  3 17  1  0  0  0  0
 19 20  1  0  0  0  0
  4 19  1  0  0  0  0
  8 21  1  0  0  0  0
 23 22  1  6  0  0  0
 23 24  1  0  0  0  0
 23 28  1  0  0  0  0
 24 25  1  0  0  0  0
 24 33  1  1  0  0  0
 25 26  1  0  0  0  0
 25 32  1  6  0  0  0
 26 27  1  0  0  0  0
 26 31  1  1  0  0  0
 27 28  1  0  0  0  0
 27 29  1  6  0  0  0
 29 30  1  0  0  0  0
  7 22  1  0  0  0  0
M  END
> <score_KierA3>
0.512453

$$$$
suggested molecule #396
 MOE2019            2D

 33 36  0  0  1  0  0  0  0  0999 V2000
    3.4992   -1.2833    0.0000 C   0  0  0  0  0  0  0  0  0  1  0  0
    4.9992   -1.2762    0.0000 C   0  0  0  0  0  0  0  0  0  2  0  0
    5.7430    0.0263    0.0000 C   0  0  0  0  0  0  0  0  0  3  0  0
    4.9869    1.3218    0.0000 C   0  0  0  0  0  0  0  0  0  4  0  0
    3.4870    1.3147    0.0000 C   0  0  0  0  0  0  0  0  0  5  0  0
    2.7431    0.0122    0.0000 C   0  0  0  0  0  0  0  0  0  6  0  0
    1.2431    0.0051    0.0000 C   0  0  0  0  0  0  0  0  0  7  0  0
    0.4870    1.3006    0.0000 C   0  0  0  0  0  0  0  0  0  8  0  0
    1.2309    2.6032    0.0000 C   0  0  0  0  0  0  0  0  0  9  0  0
    0.4748    3.8987    0.0000 O   0  0  0  0  0  0  0  0  0 10  0  0
    2.7309    2.6102    0.0000 O   0  0  0  0  0  0  0  0  0 11  0  0
    2.9041   -2.3253    0.0000 H   0  0  0  0  0  0  0  0  0  0  0  0
    9.3017   -2.0060    0.0000 C   0  0  0  0  0  0  0  0  0  0  0  0
    7.9991   -1.2621    0.0000 C   0  0  0  0  0  0  0  0  0  0  0  0
    7.2552   -2.5647    0.0000 C   0  0  0  0  0  0  0  0  0  0  0  0
    5.7553   -2.5717    0.0000 C   0  0  0  0  0  0  0  0  0  0  0  0
    7.2430    0.0334    0.0000 O   0  0  0  0  0  0  0  0  0  0  0  0
    9.2946   -0.5060    0.0000 C   0  0  0  0  0  0  0  0  0  0  0  0
    5.7308    2.6244    0.0000 O   0  0  0  0  0  0  0  0  0  0  0  0
    4.9747    3.9198    0.0000 C   0  0  0  0  0  0  0  0  0  0  0  0
   -0.7130    1.2950    0.0000 H   0  0  0  0  0  0  0  0  0  0  0  0
    0.4992   -1.2974    0.0000 O   0  0  0  0  0  0  0  0  0  0  0  0
   -1.0008   -1.3045    0.0000 C   0  0  1  0  0  0  0  0  0  0  0  0
   -1.7447   -2.6070    0.0000 C   0  0  1  0  0  0  0  0  0  0  0  0
   -3.2446   -2.6141    0.0000 C   0  0  2  0  0  0  0  0  0  0  0  0
   -4.0007   -1.3186    0.0000 C   0  0  1  0  0  0  0  0  0  0  0  0
   -3.2569   -0.0160    0.0000 C   0  0  2  0  0  0  0  0  0  0  0  0
   -1.7569   -0.0090    0.0000 O   0  0  0  0  0  0  0  0  0  0  0  0
   -4.0130    1.2795    0.0000 C   0  0  0  0  0  0  0  0  0  0  0  0
   -5.5129    1.2724    0.0000 O   0  0  0  0  0  0  0  0  0  0  0  0
   -5.5007   -1.3256    0.0000 O   0  0  0  0  0  0  0  0  0  0  0  0
   -3.9885   -3.9166    0.0000 O   0  0  0  0  0  0  0  0  0  0  0  0
   -0.9886   -3.9025    0.0000 O   0  0  0  0  0  0  0  0  0  0  0  0
  1  2  2  0  0  0  0
  1  6  1  0  0  0  0
  2  3  1  0  0  0  0
  3  4  2  0  0  0  0
  4  5  1  0  0  0  0
  5  6  2  0  0  0  0
  5 11  1  0  0  0  0
  6  7  1  0  0  0  0
  7  8  2  0  0  0  0
  8  9  1  0  0  0  0
  9 10  2  0  0  0  0
  9 11  1  0  0  0  0
  1 12  1  0  0  0  0
 13 14  1  0  0  0  0
 14 15  1  0  0  0  0
 14 17  1  0  0  0  0
 14 18  1  0  0  0  0
 15 16  2  0  0  0  0
  2 16  1  0  0  0  0
  3 17  1  0  0  0  0
 19 20  1  0  0  0  0
  4 19  1  0  0  0  0
  8 21  1  0  0  0  0
 23 22  1  6  0  0  0
 23 24  1  0  0  0  0
 23 28  1  0  0  0  0
 24 25  1  0  0  0  0
 24 33  1  1  0  0  0
 25 26  1  0  0  0  0
 25 32  1  6  0  0  0
 26 27  1  0  0  0  0
 26 31  1  1  0  0  0
 27 28  1  0  0  0  0
 27 29  1  6  0  0  0
 29 30  1  0  0  0  0
  7 22  1  0  0  0  0
M  END
> <score_KierFlex>
0.516581

$$$$
suggested molecule #397
 MOE2019            2D

 30 33  0  0  0  0  0  0  0  0999 V2000
    3.4992   -1.2833    0.0000 C   0  0  0  0  0  0  0  0  0  1  0  0
    4.9992   -1.2762    0.0000 C   0  0  0  0  0  0  0  0  0  2  0  0
    5.7430    0.0263    0.0000 C   0  0  0  0  0  0  0  0  0  3  0  0
    4.9869    1.3218    0.0000 C   0  0  0  0  0  0  0  0  0  4  0  0
    3.4870    1.3147    0.0000 C   0  0  0  0  0  0  0  0  0  5  0  0
    2.7431    0.0122    0.0000 C   0  0  0  0  0  0  0  0  0  6  0  0
    1.2431    0.0051    0.0000 C   0  0  0  0  0  0  0  0  0  7  0  0
    0.4870    1.3006    0.0000 C   0  0  0  0  0  0  0  0  0  8  0  0
    1.2309    2.6032    0.0000 C   0  0  0  0  0  0  0  0  0  9  0  0
    0.4748    3.8987    0.0000 O   0  0  0  0  0  0  0  0  0 10  0  0
    2.7309    2.6102    0.0000 O   0  0  0  0  0  0  0  0  0 11  0  0
    2.9041   -2.3253    0.0000 H   0  0  0  0  0  0  0  0  0  0  0  0
    9.3017   -2.0060    0.0000 C   0  0  0  0  0  0  0  0  0  0  0  0
    7.9991   -1.2621    0.0000 C   0  0  0  0  0  0  0  0  0  0  0  0
    7.2552   -2.5647    0.0000 C   0  0  0  0  0  0  0  0  0  0  0  0
    5.7553   -2.5717    0.0000 C   0  0  0  0  0  0  0  0  0  0  0  0
    7.2430    0.0334    0.0000 O   0  0  0  0  0  0  0  0  0  0  0  0
    9.2946   -0.5060    0.0000 C   0  0  0  0  0  0  0  0  0  0  0  0
    5.7308    2.6244    0.0000 O   0  0  0  0  0  0  0  0  0  0  0  0
    4.9747    3.9198    0.0000 C   0  0  0  0  0  0  0  0  0  0  0  0
   -0.7130    1.2950    0.0000 H   0  0  0  0  0  0  0  0  0  0  0  0
   -1.0008   -1.3045    0.0000 C   0  0  0  0  0  0  0  0  0  0  0  0
    0.4992   -1.2974    0.0000 C   0  0  0  0  0  0  0  0  0  0  0  0
    1.2553   -2.5929    0.0000 C   0  0  0  0  0  0  0  0  0  0  0  0
    0.5114   -3.8955    0.0000 C   0  0  0  0  0  0  0  0  0  0  0  0
   -0.9886   -3.9025    0.0000 C   0  0  0  0  0  0  0  0  0  0  0  0
   -1.7447   -2.6070    0.0000 C   0  0  0  0  0  0  0  0  0  0  0  0
   -3.2446   -2.6141    0.0000 O   0  0  0  0  0  0  0  0  0  0  0  0
   -1.7324   -5.2051    0.0000 O   0  0  0  0  0  0  0  0  0  0  0  0
    1.2675   -5.1910    0.0000 O   0  0  0  0  0  0  0  0  0  0  0  0
  1  2  1  0  0  0  0
  1  6  2  0  0  0  0
  2  3  2  0  0  0  0
  3  4  1  0  0  0  0
  4  5  2  0  0  0  0
  5  6  1  0  0  0  0
  5 11  1  0  0  0  0
  6  7  1  0  0  0  0
  7  8  2  0  0  0  0
  8  9  1  0  0  0  0
  9 10  2  0  0  0  0
  9 11  1  0  0  0  0
  1 12  1  0  0  0  0
 13 14  1  0  0  0  0
 14 15  1  0  0  0  0
 14 17  1  0  0  0  0
 14 18  1  0  0  0  0
 15 16  2  0  0  0  0
  2 16  1  0  0  0  0
  3 17  1  0  0  0  0
 19 20  1  0  0  0  0
  4 19  1  0  0  0  0
  8 21  1  0  0  0  0
 22 23  1  0  0  0  0
 22 27  2  0  0  0  0
 23 24  2  0  0  0  0
 24 25  1  0  0  0  0
 25 26  2  0  0  0  0
 25 30  1  0  0  0  0
 26 27  1  0  0  0  0
 26 29  1  0  0  0  0
 27 28  1  0  0  0  0
  7 23  1  0  0  0  0
M  END
> <score_Kier3>
0.511728

$$$$
suggested molecule #398
 MOE2019            2D

 30 33  0  0  0  0  0  0  0  0999 V2000
    3.4992   -1.2833    0.0000 C   0  0  0  0  0  0  0  0  0  1  0  0
    4.9992   -1.2762    0.0000 C   0  0  0  0  0  0  0  0  0  2  0  0
    5.7430    0.0263    0.0000 C   0  0  0  0  0  0  0  0  0  3  0  0
    4.9869    1.3218    0.0000 C   0  0  0  0  0  0  0  0  0  4  0  0
    3.4870    1.3147    0.0000 C   0  0  0  0  0  0  0  0  0  5  0  0
    2.7431    0.0122    0.0000 C   0  0  0  0  0  0  0  0  0  6  0  0
    1.2431    0.0051    0.0000 C   0  0  0  0  0  0  0  0  0  7  0  0
    0.4870    1.3006    0.0000 C   0  0  0  0  0  0  0  0  0  8  0  0
    1.2309    2.6032    0.0000 C   0  0  0  0  0  0  0  0  0  9  0  0
    0.4748    3.8987    0.0000 O   0  0  0  0  0  0  0  0  0 10  0  0
    2.7309    2.6102    0.0000 O   0  0  0  0  0  0  0  0  0 11  0  0
    2.9041   -2.3253    0.0000 H   0  0  0  0  0  0  0  0  0  0  0  0
    9.3017   -2.0060    0.0000 C   0  0  0  0  0  0  0  0  0  0  0  0
    7.9991   -1.2621    0.0000 C   0  0  0  0  0  0  0  0  0  0  0  0
    7.2552   -2.5647    0.0000 C   0  0  0  0  0  0  0  0  0  0  0  0
    5.7553   -2.5717    0.0000 C   0  0  0  0  0  0  0  0  0  0  0  0
    7.2430    0.0334    0.0000 O   0  0  0  0  0  0  0  0  0  0  0  0
    9.2946   -0.5060    0.0000 C   0  0  0  0  0  0  0  0  0  0  0  0
    5.7308    2.6244    0.0000 O   0  0  0  0  0  0  0  0  0  0  0  0
    4.9747    3.9198    0.0000 C   0  0  0  0  0  0  0  0  0  0  0  0
   -0.7130    1.2950    0.0000 H   0  0  0  0  0  0  0  0  0  0  0  0
   -1.0008   -1.3045    0.0000 C   0  0  0  0  0  0  0  0  0  0  0  0
    0.4992   -1.2974    0.0000 C   0  0  0  0  0  0  0  0  0  0  0  0
    1.2553   -2.5929    0.0000 C   0  0  0  0  0  0  0  0  0  0  0  0
    0.5114   -3.8955    0.0000 C   0  0  0  0  0  0  0  0  0  0  0  0
   -0.9886   -3.9025    0.0000 C   0  0  0  0  0  0  0  0  0  0  0  0
   -1.7447   -2.6070    0.0000 C   0  0  0  0  0  0  0  0  0  0  0  0
   -3.2446   -2.6141    0.0000 O   0  0  0  0  0  0  0  0  0  0  0  0
   -1.7324   -5.2051    0.0000 O   0  0  0  0  0  0  0  0  0  0  0  0
    1.2675   -5.1910    0.0000 O   0  0  0  0  0  0  0  0  0  0  0  0
  1  2  1  0  0  0  0
  1  6  2  0  0  0  0
  2  3  2  0  0  0  0
  3  4  1  0  0  0  0
  4  5  2  0  0  0  0
  5  6  1  0  0  0  0
  5 11  1  0  0  0  0
  6  7  1  0  0  0  0
  7  8  2  0  0  0  0
  8  9  1  0  0  0  0
  9 10  2  0  0  0  0
  9 11  1  0  0  0  0
  1 12  1  0  0  0  0
 13 14  1  0  0  0  0
 14 15  1  0  0  0  0
 14 17  1  0  0  0  0
 14 18  1  0  0  0  0
 15 16  2  0  0  0  0
  2 16  1  0  0  0  0
  3 17  1  0  0  0  0
 19 20  1  0  0  0  0
  4 19  1  0  0  0  0
  8 21  1  0  0  0  0
 22 23  1  0  0  0  0
 22 27  2  0  0  0  0
 23 24  2  0  0  0  0
 24 25  1  0  0  0  0
 25 26  2  0  0  0  0
 25 30  1  0  0  0  0
 26 27  1  0  0  0  0
 26 29  1  0  0  0  0
 27 28  1  0  0  0  0
  7 23  1  0  0  0  0
M  END
> <score_KierA1>
0.517721

$$$$
suggested molecule #399
 MOE2019            2D

 30 33  0  0  0  0  0  0  0  0999 V2000
    3.4992   -1.2833    0.0000 C   0  0  0  0  0  0  0  0  0  1  0  0
    4.9992   -1.2762    0.0000 C   0  0  0  0  0  0  0  0  0  2  0  0
    5.7430    0.0263    0.0000 C   0  0  0  0  0  0  0  0  0  3  0  0
    4.9869    1.3218    0.0000 C   0  0  0  0  0  0  0  0  0  4  0  0
    3.4870    1.3147    0.0000 C   0  0  0  0  0  0  0  0  0  5  0  0
    2.7431    0.0122    0.0000 C   0  0  0  0  0  0  0  0  0  6  0  0
    1.2431    0.0051    0.0000 C   0  0  0  0  0  0  0  0  0  7  0  0
    0.4870    1.3006    0.0000 C   0  0  0  0  0  0  0  0  0  8  0  0
    1.2309    2.6032    0.0000 C   0  0  0  0  0  0  0  0  0  9  0  0
    0.4748    3.8987    0.0000 O   0  0  0  0  0  0  0  0  0 10  0  0
    2.7309    2.6102    0.0000 O   0  0  0  0  0  0  0  0  0 11  0  0
    2.9041   -2.3253    0.0000 H   0  0  0  0  0  0  0  0  0  0  0  0
    9.3017   -2.0060    0.0000 C   0  0  0  0  0  0  0  0  0  0  0  0
    7.9991   -1.2621    0.0000 C   0  0  0  0  0  0  0  0  0  0  0  0
    7.2552   -2.5647    0.0000 C   0  0  0  0  0  0  0  0  0  0  0  0
    5.7553   -2.5717    0.0000 C   0  0  0  0  0  0  0  0  0  0  0  0
    7.2430    0.0334    0.0000 O   0  0  0  0  0  0  0  0  0  0  0  0
    9.2946   -0.5060    0.0000 C   0  0  0  0  0  0  0  0  0  0  0  0
    5.7308    2.6244    0.0000 O   0  0  0  0  0  0  0  0  0  0  0  0
    4.9747    3.9198    0.0000 C   0  0  0  0  0  0  0  0  0  0  0  0
   -0.7130    1.2950    0.0000 H   0  0  0  0  0  0  0  0  0  0  0  0
   -1.0008   -1.3045    0.0000 C   0  0  0  0  0  0  0  0  0  0  0  0
    0.4992   -1.2974    0.0000 C   0  0  0  0  0  0  0  0  0  0  0  0
    1.2553   -2.5929    0.0000 C   0  0  0  0  0  0  0  0  0  0  0  0
    0.5114   -3.8955    0.0000 C   0  0  0  0  0  0  0  0  0  0  0  0
   -0.9886   -3.9025    0.0000 C   0  0  0  0  0  0  0  0  0  0  0  0
   -1.7447   -2.6070    0.0000 C   0  0  0  0  0  0  0  0  0  0  0  0
   -3.2446   -2.6141    0.0000 O   0  0  0  0  0  0  0  0  0  0  0  0
   -1.7324   -5.2051    0.0000 O   0  0  0  0  0  0  0  0  0  0  0  0
    1.2675   -5.1910    0.0000 O   0  0  0  0  0  0  0  0  0  0  0  0
  1  2  1  0  0  0  0
  1  6  2  0  0  0  0
  2  3  2  0  0  0  0
  3  4  1  0  0  0  0
  4  5  2  0  0  0  0
  5  6  1  0  0  0  0
  5 11  1  0  0  0  0
  6  7  1  0  0  0  0
  7  8  2  0  0  0  0
  8  9  1  0  0  0  0
  9 10  2  0  0  0  0
  9 11  1  0  0  0  0
  1 12  1  0  0  0  0
 13 14  1  0  0  0  0
 14 15  1  0  0  0  0
 14 17  1  0  0  0  0
 14 18  1  0  0  0  0
 15 16  2  0  0  0  0
  2 16  1  0  0  0  0
  3 17  1  0  0  0  0
 19 20  1  0  0  0  0
  4 19  1  0  0  0  0
  8 21  1  0  0  0  0
 22 23  1  0  0  0  0
 22 27  2  0  0  0  0
 23 24  2  0  0  0  0
 24 25  1  0  0  0  0
 25 26  2  0  0  0  0
 25 30  1  0  0  0  0
 26 27  1  0  0  0  0
 26 29  1  0  0  0  0
 27 28  1  0  0  0  0
  7 23  1  0  0  0  0
M  END
> <score_KierA2>
0.516807

$$$$
suggested molecule #400
 MOE2019            2D

 30 33  0  0  0  0  0  0  0  0999 V2000
    3.4992   -1.2833    0.0000 C   0  0  0  0  0  0  0  0  0  1  0  0
    4.9992   -1.2762    0.0000 C   0  0  0  0  0  0  0  0  0  2  0  0
    5.7430    0.0263    0.0000 C   0  0  0  0  0  0  0  0  0  3  0  0
    4.9869    1.3218    0.0000 C   0  0  0  0  0  0  0  0  0  4  0  0
    3.4870    1.3147    0.0000 C   0  0  0  0  0  0  0  0  0  5  0  0
    2.7431    0.0122    0.0000 C   0  0  0  0  0  0  0  0  0  6  0  0
    1.2431    0.0051    0.0000 C   0  0  0  0  0  0  0  0  0  7  0  0
    0.4870    1.3006    0.0000 C   0  0  0  0  0  0  0  0  0  8  0  0
    1.2309    2.6032    0.0000 C   0  0  0  0  0  0  0  0  0  9  0  0
    0.4748    3.8987    0.0000 O   0  0  0  0  0  0  0  0  0 10  0  0
    2.7309    2.6102    0.0000 O   0  0  0  0  0  0  0  0  0 11  0  0
    2.9041   -2.3253    0.0000 H   0  0  0  0  0  0  0  0  0  0  0  0
    9.3017   -2.0060    0.0000 C   0  0  0  0  0  0  0  0  0  0  0  0
    7.9991   -1.2621    0.0000 C   0  0  0  0  0  0  0  0  0  0  0  0
    7.2552   -2.5647    0.0000 C   0  0  0  0  0  0  0  0  0  0  0  0
    5.7553   -2.5717    0.0000 C   0  0  0  0  0  0  0  0  0  0  0  0
    7.2430    0.0334    0.0000 O   0  0  0  0  0  0  0  0  0  0  0  0
    9.2946   -0.5060    0.0000 C   0  0  0  0  0  0  0  0  0  0  0  0
    5.7308    2.6244    0.0000 O   0  0  0  0  0  0  0  0  0  0  0  0
    4.9747    3.9198    0.0000 C   0  0  0  0  0  0  0  0  0  0  0  0
   -0.7130    1.2950    0.0000 H   0  0  0  0  0  0  0  0  0  0  0  0
   -1.0008   -1.3045    0.0000 C   0  0  0  0  0  0  0  0  0  0  0  0
    0.4992   -1.2974    0.0000 C   0  0  0  0  0  0  0  0  0  0  0  0
    1.2553   -2.5929    0.0000 C   0  0  0  0  0  0  0  0  0  0  0  0
    0.5114   -3.8955    0.0000 C   0  0  0  0  0  0  0  0  0  0  0  0
   -0.9886   -3.9025    0.0000 C   0  0  0  0  0  0  0  0  0  0  0  0
   -1.7447   -2.6070    0.0000 C   0  0  0  0  0  0  0  0  0  0  0  0
   -3.2446   -2.6141    0.0000 O   0  0  0  0  0  0  0  0  0  0  0  0
   -1.7324   -5.2051    0.0000 O   0  0  0  0  0  0  0  0  0  0  0  0
    1.2675   -5.1910    0.0000 O   0  0  0  0  0  0  0  0  0  0  0  0
  1  2  1  0  0  0  0
  1  6  2  0  0  0  0
  2  3  2  0  0  0  0
  3  4  1  0  0  0  0
  4  5  2  0  0  0  0
  5  6  1  0  0  0  0
  5 11  1  0  0  0  0
  6  7  1  0  0  0  0
  7  8  2  0  0  0  0
  8  9  1  0  0  0  0
  9 10  2  0  0  0  0
  9 11  1  0  0  0  0
  1 12  1  0  0  0  0
 13 14  1  0  0  0  0
 14 15  1  0  0  0  0
 14 17  1  0  0  0  0
 14 18  1  0  0  0  0
 15 16  2  0  0  0  0
  2 16  1  0  0  0  0
  3 17  1  0  0  0  0
 19 20  1  0  0  0  0
  4 19  1  0  0  0  0
  8 21  1  0  0  0  0
 22 23  1  0  0  0  0
 22 27  2  0  0  0  0
 23 24  2  0  0  0  0
 24 25  1  0  0  0  0
 25 26  2  0  0  0  0
 25 30  1  0  0  0  0
 26 27  1  0  0  0  0
 26 29  1  0  0  0  0
 27 28  1  0  0  0  0
  7 23  1  0  0  0  0
M  END
> <score_KierA3>
0.512443

$$$$
suggested molecule #401
 MOE2019            2D

 30 33  0  0  0  0  0  0  0  0999 V2000
    3.4992   -1.2833    0.0000 C   0  0  0  0  0  0  0  0  0  1  0  0
    4.9992   -1.2762    0.0000 C   0  0  0  0  0  0  0  0  0  2  0  0
    5.7430    0.0263    0.0000 C   0  0  0  0  0  0  0  0  0  3  0  0
    4.9869    1.3218    0.0000 C   0  0  0  0  0  0  0  0  0  4  0  0
    3.4870    1.3147    0.0000 C   0  0  0  0  0  0  0  0  0  5  0  0
    2.7431    0.0122    0.0000 C   0  0  0  0  0  0  0  0  0  6  0  0
    1.2431    0.0051    0.0000 C   0  0  0  0  0  0  0  0  0  7  0  0
    0.4870    1.3006    0.0000 C   0  0  0  0  0  0  0  0  0  8  0  0
    1.2309    2.6032    0.0000 C   0  0  0  0  0  0  0  0  0  9  0  0
    0.4748    3.8987    0.0000 O   0  0  0  0  0  0  0  0  0 10  0  0
    2.7309    2.6102    0.0000 O   0  0  0  0  0  0  0  0  0 11  0  0
    2.9041   -2.3253    0.0000 H   0  0  0  0  0  0  0  0  0  0  0  0
    9.3017   -2.0060    0.0000 C   0  0  0  0  0  0  0  0  0  0  0  0
    7.9991   -1.2621    0.0000 C   0  0  0  0  0  0  0  0  0  0  0  0
    7.2552   -2.5647    0.0000 C   0  0  0  0  0  0  0  0  0  0  0  0
    5.7553   -2.5717    0.0000 C   0  0  0  0  0  0  0  0  0  0  0  0
    7.2430    0.0334    0.0000 O   0  0  0  0  0  0  0  0  0  0  0  0
    9.2946   -0.5060    0.0000 C   0  0  0  0  0  0  0  0  0  0  0  0
    5.7308    2.6244    0.0000 O   0  0  0  0  0  0  0  0  0  0  0  0
    4.9747    3.9198    0.0000 C   0  0  0  0  0  0  0  0  0  0  0  0
   -0.7130    1.2950    0.0000 H   0  0  0  0  0  0  0  0  0  0  0  0
   -1.0008   -1.3045    0.0000 C   0  0  0  0  0  0  0  0  0  0  0  0
    0.4992   -1.2974    0.0000 C   0  0  0  0  0  0  0  0  0  0  0  0
    1.2553   -2.5929    0.0000 C   0  0  0  0  0  0  0  0  0  0  0  0
    0.5114   -3.8955    0.0000 C   0  0  0  0  0  0  0  0  0  0  0  0
   -0.9886   -3.9025    0.0000 C   0  0  0  0  0  0  0  0  0  0  0  0
   -1.7447   -2.6070    0.0000 C   0  0  0  0  0  0  0  0  0  0  0  0
   -3.2446   -2.6141    0.0000 O   0  0  0  0  0  0  0  0  0  0  0  0
   -1.7324   -5.2051    0.0000 O   0  0  0  0  0  0  0  0  0  0  0  0
    1.2675   -5.1910    0.0000 O   0  0  0  0  0  0  0  0  0  0  0  0
  1  2  1  0  0  0  0
  1  6  2  0  0  0  0
  2  3  2  0  0  0  0
  3  4  1  0  0  0  0
  4  5  2  0  0  0  0
  5  6  1  0  0  0  0
  5 11  1  0  0  0  0
  6  7  1  0  0  0  0
  7  8  2  0  0  0  0
  8  9  1  0  0  0  0
  9 10  2  0  0  0  0
  9 11  1  0  0  0  0
  1 12  1  0  0  0  0
 13 14  1  0  0  0  0
 14 15  1  0  0  0  0
 14 17  1  0  0  0  0
 14 18  1  0  0  0  0
 15 16  2  0  0  0  0
  2 16  1  0  0  0  0
  3 17  1  0  0  0  0
 19 20  1  0  0  0  0
  4 19  1  0  0  0  0
  8 21  1  0  0  0  0
 22 23  1  0  0  0  0
 22 27  2  0  0  0  0
 23 24  2  0  0  0  0
 24 25  1  0  0  0  0
 25 26  2  0  0  0  0
 25 30  1  0  0  0  0
 26 27  1  0  0  0  0
 26 29  1  0  0  0  0
 27 28  1  0  0  0  0
  7 23  1  0  0  0  0
M  END
> <score_KierFlex>
0.516565

$$$$
suggested molecule #402
 MOE2019            2D

 39 43  0  0  1  0  0  0  0  0999 V2000
    3.4992   -1.2833    0.0000 C   0  0  0  0  0  0  0  0  0  1  0  0
    4.9992   -1.2762    0.0000 C   0  0  0  0  0  0  0  0  0  2  0  0
    5.7430    0.0263    0.0000 C   0  0  0  0  0  0  0  0  0  3  0  0
    4.9869    1.3218    0.0000 C   0  0  0  0  0  0  0  0  0  4  0  0
    3.4870    1.3147    0.0000 C   0  0  0  0  0  0  0  0  0  5  0  0
    2.7431    0.0122    0.0000 C   0  0  0  0  0  0  0  0  0  6  0  0
    1.2431    0.0051    0.0000 C   0  0  0  0  0  0  0  0  0  7  0  0
    0.4870    1.3006    0.0000 C   0  0  0  0  0  0  0  0  0  8  0  0
    1.2309    2.6032    0.0000 C   0  0  0  0  0  0  0  0  0  9  0  0
    0.4748    3.8987    0.0000 O   0  0  0  0  0  0  0  0  0 10  0  0
    2.7309    2.6102    0.0000 O   0  0  0  0  0  0  0  0  0 11  0  0
    2.9041   -2.3253    0.0000 H   0  0  0  0  0  0  0  0  0  0  0  0
    9.3017   -2.0060    0.0000 C   0  0  0  0  0  0  0  0  0  0  0  0
    7.9991   -1.2621    0.0000 C   0  0  0  0  0  0  0  0  0  0  0  0
    7.2552   -2.5647    0.0000 C   0  0  0  0  0  0  0  0  0  0  0  0
    5.7553   -2.5717    0.0000 C   0  0  0  0  0  0  0  0  0  0  0  0
    7.2430    0.0334    0.0000 O   0  0  0  0  0  0  0  0  0  0  0  0
    9.2946   -0.5060    0.0000 C   0  0  0  0  0  0  0  0  0  0  0  0
    5.7308    2.6244    0.0000 O   0  0  0  0  0  0  0  0  0  0  0  0
    4.9747    3.9198    0.0000 C   0  0  0  0  0  0  0  0  0  0  0  0
   -0.7130    1.2950    0.0000 H   0  0  0  0  0  0  0  0  0  0  0  0
    0.4992   -1.2974    0.0000 C   0  0  0  0  0  0  0  0  0  0  0  0
    1.2553   -2.5929    0.0000 C   0  0  0  0  0  0  0  0  0  0  0  0
    0.5114   -3.8955    0.0000 C   0  0  0  0  0  0  0  0  0  0  0  0
   -0.9886   -3.9025    0.0000 C   0  0  0  0  0  0  0  0  0  0  0  0
   -1.7447   -2.6070    0.0000 C   0  0  0  0  0  0  0  0  0  0  0  0
   -1.0008   -1.3045    0.0000 C   0  0  0  0  0  0  0  0  0  0  0  0
   -1.7324   -5.2051    0.0000 O   0  0  0  0  0  0  0  0  0  0  0  0
   -3.2324   -5.2121    0.0000 C   0  0  1  0  0  0  0  0  0  0  0  0
   -3.9763   -6.5147    0.0000 C   0  0  1  0  0  0  0  0  0  0  0  0
   -5.4763   -6.5217    0.0000 C   0  0  2  0  0  0  0  0  0  0  0  0
   -6.2324   -5.2262    0.0000 C   0  0  1  0  0  0  0  0  0  0  0  0
   -5.4885   -3.9237    0.0000 C   0  0  2  0  0  0  0  0  0  0  0  0
   -3.9885   -3.9166    0.0000 O   0  0  0  0  0  0  0  0  0  0  0  0
   -6.2446   -2.6282    0.0000 C   0  0  0  0  0  0  0  0  0  0  0  0
   -7.7446   -2.6352    0.0000 O   0  0  0  0  0  0  0  0  0  0  0  0
   -7.7324   -5.2333    0.0000 O   0  0  0  0  0  0  0  0  0  0  0  0
   -6.2202   -7.8243    0.0000 O   0  0  0  0  0  0  0  0  0  0  0  0
   -3.2202   -7.8102    0.0000 O   0  0  0  0  0  0  0  0  0  0  0  0
  1  2  2  0  0  0  0
  1  6  1  0  0  0  0
  2  3  1  0  0  0  0
  3  4  2  0  0  0  0
  4  5  1  0  0  0  0
  5  6  2  0  0  0  0
  5 11  1  0  0  0  0
  6  7  1  0  0  0  0
  7  8  2  0  0  0  0
  8  9  1  0  0  0  0
  9 10  2  0  0  0  0
  9 11  1  0  0  0  0
  1 12  1  0  0  0  0
 13 14  1  0  0  0  0
 14 15  1  0  0  0  0
 14 17  1  0  0  0  0
 14 18  1  0  0  0  0
 15 16  2  0  0  0  0
  2 16  1  0  0  0  0
  3 17  1  0  0  0  0
 19 20  1  0  0  0  0
  4 19  1  0  0  0  0
  8 21  1  0  0  0  0
 22 23  1  0  0  0  0
 22 27  2  0  0  0  0
 23 24  2  0  0  0  0
 24 25  1  0  0  0  0
 25 26  2  0  0  0  0
 25 28  1  0  0  0  0
 26 27  1  0  0  0  0
 29 28  1  6  0  0  0
 29 30  1  0  0  0  0
 29 34  1  0  0  0  0
 30 31  1  0  0  0  0
 30 39  1  1  0  0  0
 31 32  1  0  0  0  0
 31 38  1  6  0  0  0
 32 33  1  0  0  0  0
 32 37  1  1  0  0  0
 33 34  1  0  0  0  0
 33 35  1  6  0  0  0
 35 36  1  0  0  0  0
  7 22  1  0  0  0  0
M  END
> <score_Kier3>
0.5116

$$$$
suggested molecule #403
 MOE2019            2D

 39 43  0  0  1  0  0  0  0  0999 V2000
    3.4992   -1.2833    0.0000 C   0  0  0  0  0  0  0  0  0  1  0  0
    4.9992   -1.2762    0.0000 C   0  0  0  0  0  0  0  0  0  2  0  0
    5.7430    0.0263    0.0000 C   0  0  0  0  0  0  0  0  0  3  0  0
    4.9869    1.3218    0.0000 C   0  0  0  0  0  0  0  0  0  4  0  0
    3.4870    1.3147    0.0000 C   0  0  0  0  0  0  0  0  0  5  0  0
    2.7431    0.0122    0.0000 C   0  0  0  0  0  0  0  0  0  6  0  0
    1.2431    0.0051    0.0000 C   0  0  0  0  0  0  0  0  0  7  0  0
    0.4870    1.3006    0.0000 C   0  0  0  0  0  0  0  0  0  8  0  0
    1.2309    2.6032    0.0000 C   0  0  0  0  0  0  0  0  0  9  0  0
    0.4748    3.8987    0.0000 O   0  0  0  0  0  0  0  0  0 10  0  0
    2.7309    2.6102    0.0000 O   0  0  0  0  0  0  0  0  0 11  0  0
    2.9041   -2.3253    0.0000 H   0  0  0  0  0  0  0  0  0  0  0  0
    9.3017   -2.0060    0.0000 C   0  0  0  0  0  0  0  0  0  0  0  0
    7.9991   -1.2621    0.0000 C   0  0  0  0  0  0  0  0  0  0  0  0
    7.2552   -2.5647    0.0000 C   0  0  0  0  0  0  0  0  0  0  0  0
    5.7553   -2.5717    0.0000 C   0  0  0  0  0  0  0  0  0  0  0  0
    7.2430    0.0334    0.0000 O   0  0  0  0  0  0  0  0  0  0  0  0
    9.2946   -0.5060    0.0000 C   0  0  0  0  0  0  0  0  0  0  0  0
    5.7308    2.6244    0.0000 O   0  0  0  0  0  0  0  0  0  0  0  0
    4.9747    3.9198    0.0000 C   0  0  0  0  0  0  0  0  0  0  0  0
   -0.7130    1.2950    0.0000 H   0  0  0  0  0  0  0  0  0  0  0  0
    0.4992   -1.2974    0.0000 C   0  0  0  0  0  0  0  0  0  0  0  0
    1.2553   -2.5929    0.0000 C   0  0  0  0  0  0  0  0  0  0  0  0
    0.5114   -3.8955    0.0000 C   0  0  0  0  0  0  0  0  0  0  0  0
   -0.9886   -3.9025    0.0000 C   0  0  0  0  0  0  0  0  0  0  0  0
   -1.7447   -2.6070    0.0000 C   0  0  0  0  0  0  0  0  0  0  0  0
   -1.0008   -1.3045    0.0000 C   0  0  0  0  0  0  0  0  0  0  0  0
   -1.7324   -5.2051    0.0000 O   0  0  0  0  0  0  0  0  0  0  0  0
   -3.2324   -5.2121    0.0000 C   0  0  1  0  0  0  0  0  0  0  0  0
   -3.9763   -6.5147    0.0000 C   0  0  1  0  0  0  0  0  0  0  0  0
   -5.4763   -6.5217    0.0000 C   0  0  2  0  0  0  0  0  0  0  0  0
   -6.2324   -5.2262    0.0000 C   0  0  1  0  0  0  0  0  0  0  0  0
   -5.4885   -3.9237    0.0000 C   0  0  2  0  0  0  0  0  0  0  0  0
   -3.9885   -3.9166    0.0000 O   0  0  0  0  0  0  0  0  0  0  0  0
   -6.2446   -2.6282    0.0000 C   0  0  0  0  0  0  0  0  0  0  0  0
   -7.7446   -2.6352    0.0000 O   0  0  0  0  0  0  0  0  0  0  0  0
   -7.7324   -5.2333    0.0000 O   0  0  0  0  0  0  0  0  0  0  0  0
   -6.2202   -7.8243    0.0000 O   0  0  0  0  0  0  0  0  0  0  0  0
   -3.2202   -7.8102    0.0000 O   0  0  0  0  0  0  0  0  0  0  0  0
  1  2  2  0  0  0  0
  1  6  1  0  0  0  0
  2  3  1  0  0  0  0
  3  4  2  0  0  0  0
  4  5  1  0  0  0  0
  5  6  2  0  0  0  0
  5 11  1  0  0  0  0
  6  7  1  0  0  0  0
  7  8  2  0  0  0  0
  8  9  1  0  0  0  0
  9 10  2  0  0  0  0
  9 11  1  0  0  0  0
  1 12  1  0  0  0  0
 13 14  1  0  0  0  0
 14 15  1  0  0  0  0
 14 17  1  0  0  0  0
 14 18  1  0  0  0  0
 15 16  2  0  0  0  0
  2 16  1  0  0  0  0
  3 17  1  0  0  0  0
 19 20  1  0  0  0  0
  4 19  1  0  0  0  0
  8 21  1  0  0  0  0
 22 23  1  0  0  0  0
 22 27  2  0  0  0  0
 23 24  2  0  0  0  0
 24 25  1  0  0  0  0
 25 26  2  0  0  0  0
 25 28  1  0  0  0  0
 26 27  1  0  0  0  0
 29 28  1  6  0  0  0
 29 30  1  0  0  0  0
 29 34  1  0  0  0  0
 30 31  1  0  0  0  0
 30 39  1  1  0  0  0
 31 32  1  0  0  0  0
 31 38  1  6  0  0  0
 32 33  1  0  0  0  0
 32 37  1  1  0  0  0
 33 34  1  0  0  0  0
 33 35  1  6  0  0  0
 35 36  1  0  0  0  0
  7 22  1  0  0  0  0
M  END
> <score_KierA3>
0.512293

$$$$
suggested molecule #404
 MOE2019            2D

 39 43  0  0  1  0  0  0  0  0999 V2000
    3.4992   -1.2833    0.0000 C   0  0  0  0  0  0  0  0  0  1  0  0
    4.9992   -1.2762    0.0000 C   0  0  0  0  0  0  0  0  0  2  0  0
    5.7430    0.0263    0.0000 C   0  0  0  0  0  0  0  0  0  3  0  0
    4.9869    1.3218    0.0000 C   0  0  0  0  0  0  0  0  0  4  0  0
    3.4870    1.3147    0.0000 C   0  0  0  0  0  0  0  0  0  5  0  0
    2.7431    0.0122    0.0000 C   0  0  0  0  0  0  0  0  0  6  0  0
    1.2431    0.0051    0.0000 C   0  0  0  0  0  0  0  0  0  7  0  0
    0.4870    1.3006    0.0000 C   0  0  0  0  0  0  0  0  0  8  0  0
    1.2309    2.6032    0.0000 C   0  0  0  0  0  0  0  0  0  9  0  0
    0.4748    3.8987    0.0000 O   0  0  0  0  0  0  0  0  0 10  0  0
    2.7309    2.6102    0.0000 O   0  0  0  0  0  0  0  0  0 11  0  0
    2.9041   -2.3253    0.0000 H   0  0  0  0  0  0  0  0  0  0  0  0
    9.3017   -2.0060    0.0000 C   0  0  0  0  0  0  0  0  0  0  0  0
    7.9991   -1.2621    0.0000 C   0  0  0  0  0  0  0  0  0  0  0  0
    7.2552   -2.5647    0.0000 C   0  0  0  0  0  0  0  0  0  0  0  0
    5.7553   -2.5717    0.0000 C   0  0  0  0  0  0  0  0  0  0  0  0
    7.2430    0.0334    0.0000 O   0  0  0  0  0  0  0  0  0  0  0  0
    9.2946   -0.5060    0.0000 C   0  0  0  0  0  0  0  0  0  0  0  0
    5.7308    2.6244    0.0000 O   0  0  0  0  0  0  0  0  0  0  0  0
    4.9747    3.9198    0.0000 C   0  0  0  0  0  0  0  0  0  0  0  0
   -0.7130    1.2950    0.0000 H   0  0  0  0  0  0  0  0  0  0  0  0
    0.4992   -1.2974    0.0000 C   0  0  0  0  0  0  0  0  0  0  0  0
    1.2553   -2.5929    0.0000 C   0  0  0  0  0  0  0  0  0  0  0  0
    0.5114   -3.8955    0.0000 C   0  0  0  0  0  0  0  0  0  0  0  0
   -0.9886   -3.9025    0.0000 C   0  0  0  0  0  0  0  0  0  0  0  0
   -1.7447   -2.6070    0.0000 C   0  0  0  0  0  0  0  0  0  0  0  0
   -1.0008   -1.3045    0.0000 C   0  0  0  0  0  0  0  0  0  0  0  0
   -1.7324   -5.2051    0.0000 O   0  0  0  0  0  0  0  0  0  0  0  0
   -3.2324   -5.2121    0.0000 C   0  0  1  0  0  0  0  0  0  0  0  0
   -3.9763   -6.5147    0.0000 C   0  0  1  0  0  0  0  0  0  0  0  0
   -5.4763   -6.5217    0.0000 C   0  0  2  0  0  0  0  0  0  0  0  0
   -6.2324   -5.2262    0.0000 C   0  0  1  0  0  0  0  0  0  0  0  0
   -5.4885   -3.9237    0.0000 C   0  0  2  0  0  0  0  0  0  0  0  0
   -3.9885   -3.9166    0.0000 O   0  0  0  0  0  0  0  0  0  0  0  0
   -6.2446   -2.6282    0.0000 C   0  0  0  0  0  0  0  0  0  0  0  0
   -7.7446   -2.6352    0.0000 O   0  0  0  0  0  0  0  0  0  0  0  0
   -7.7324   -5.2333    0.0000 O   0  0  0  0  0  0  0  0  0  0  0  0
   -6.2202   -7.8243    0.0000 O   0  0  0  0  0  0  0  0  0  0  0  0
   -3.2202   -7.8102    0.0000 O   0  0  0  0  0  0  0  0  0  0  0  0
  1  2  2  0  0  0  0
  1  6  1  0  0  0  0
  2  3  1  0  0  0  0
  3  4  2  0  0  0  0
  4  5  1  0  0  0  0
  5  6  2  0  0  0  0
  5 11  1  0  0  0  0
  6  7  1  0  0  0  0
  7  8  2  0  0  0  0
  8  9  1  0  0  0  0
  9 10  2  0  0  0  0
  9 11  1  0  0  0  0
  1 12  1  0  0  0  0
 13 14  1  0  0  0  0
 14 15  1  0  0  0  0
 14 17  1  0  0  0  0
 14 18  1  0  0  0  0
 15 16  2  0  0  0  0
  2 16  1  0  0  0  0
  3 17  1  0  0  0  0
 19 20  1  0  0  0  0
  4 19  1  0  0  0  0
  8 21  1  0  0  0  0
 22 23  1  0  0  0  0
 22 27  2  0  0  0  0
 23 24  2  0  0  0  0
 24 25  1  0  0  0  0
 25 26  2  0  0  0  0
 25 28  1  0  0  0  0
 26 27  1  0  0  0  0
 29 28  1  6  0  0  0
 29 30  1  0  0  0  0
 29 34  1  0  0  0  0
 30 31  1  0  0  0  0
 30 39  1  1  0  0  0
 31 32  1  0  0  0  0
 31 38  1  6  0  0  0
 32 33  1  0  0  0  0
 32 37  1  1  0  0  0
 33 34  1  0  0  0  0
 33 35  1  6  0  0  0
 35 36  1  0  0  0  0
  7 22  1  0  0  0  0
M  END
> <score_KierFlex>
0.516386

$$$$
suggested molecule #405
 MOE2019            2D

 27 30  0  0  0  0  0  0  0  0999 V2000
    3.4992   -1.2833    0.0000 C   0  0  0  0  0  0  0  0  0  1  0  0
    4.9992   -1.2762    0.0000 C   0  0  0  0  0  0  0  0  0  2  0  0
    5.7430    0.0263    0.0000 C   0  0  0  0  0  0  0  0  0  3  0  0
    4.9869    1.3218    0.0000 C   0  0  0  0  0  0  0  0  0  4  0  0
    3.4870    1.3147    0.0000 C   0  0  0  0  0  0  0  0  0  5  0  0
    2.7431    0.0122    0.0000 C   0  0  0  0  0  0  0  0  0  6  0  0
    1.2431    0.0051    0.0000 C   0  0  0  0  0  0  0  0  0  7  0  0
    0.4870    1.3006    0.0000 C   0  0  0  0  0  0  0  0  0  8  0  0
    1.2309    2.6032    0.0000 C   0  0  0  0  0  0  0  0  0  9  0  0
    0.4748    3.8987    0.0000 O   0  0  0  0  0  0  0  0  0 10  0  0
    2.7309    2.6102    0.0000 O   0  0  0  0  0  0  0  0  0 11  0  0
    2.9041   -2.3253    0.0000 H   0  0  0  0  0  0  0  0  0  0  0  0
    9.2946   -0.5060    0.0000 C   0  0  0  0  0  0  0  0  0  0  0  0
    7.9991   -1.2621    0.0000 C   0  0  0  0  0  0  0  0  0  0  0  0
    7.2552   -2.5647    0.0000 C   0  0  0  0  0  0  0  0  0  0  0  0
    5.7553   -2.5717    0.0000 C   0  0  0  0  0  0  0  0  0  0  0  0
    7.2430    0.0334    0.0000 O   0  0  0  0  0  0  0  0  0  0  0  0
    9.3017   -2.0060    0.0000 C   0  0  0  0  0  0  0  0  0  0  0  0
    5.7308    2.6244    0.0000 O   0  0  0  0  0  0  0  0  0  0  0  0
    4.9747    3.9198    0.0000 C   0  0  0  0  0  0  0  0  0  0  0  0
   -0.7130    1.2950    0.0000 H   0  0  0  0  0  0  0  0  0  0  0  0
    0.4992   -1.2974    0.0000 C   0  0  0  0  0  0  0  0  0  0  0  0
    1.2553   -2.5929    0.0000 C   0  0  0  0  0  0  0  0  0  0  0  0
    0.5114   -3.8955    0.0000 C   0  0  0  0  0  0  0  0  0  0  0  0
   -0.9886   -3.9025    0.0000 C   0  0  0  0  0  0  0  0  0  0  0  0
   -1.7447   -2.6070    0.0000 C   0  0  0  0  0  0  0  0  0  0  0  0
   -1.0008   -1.3045    0.0000 C   0  0  0  0  0  0  0  0  0  0  0  0
  1  2  1  0  0  0  0
  1  6  2  0  0  0  0
  2  3  2  0  0  0  0
  3  4  1  0  0  0  0
  4  5  2  0  0  0  0
  5  6  1  0  0  0  0
  5 11  1  0  0  0  0
  6  7  1  0  0  0  0
  7  8  2  0  0  0  0
  8  9  1  0  0  0  0
  9 10  2  0  0  0  0
  9 11  1  0  0  0  0
  1 12  1  0  0  0  0
 13 14  1  0  0  0  0
 14 15  1  0  0  0  0
 14 17  1  0  0  0  0
 14 18  1  0  0  0  0
 15 16  2  0  0  0  0
  2 16  1  0  0  0  0
  3 17  1  0  0  0  0
 19 20  1  0  0  0  0
  4 19  1  0  0  0  0
  8 21  1  0  0  0  0
 22 23  1  0  0  0  0
 22 27  2  0  0  0  0
 23 24  2  0  0  0  0
 24 25  1  0  0  0  0
 25 26  2  0  0  0  0
 26 27  1  0  0  0  0
  7 22  1  0  0  0  0
M  END
> <score_Kier1>
0.518157

$$$$
suggested molecule #406
 MOE2019            2D

 27 30  0  0  0  0  0  0  0  0999 V2000
    3.4992   -1.2833    0.0000 C   0  0  0  0  0  0  0  0  0  1  0  0
    4.9992   -1.2762    0.0000 C   0  0  0  0  0  0  0  0  0  2  0  0
    5.7430    0.0263    0.0000 C   0  0  0  0  0  0  0  0  0  3  0  0
    4.9869    1.3218    0.0000 C   0  0  0  0  0  0  0  0  0  4  0  0
    3.4870    1.3147    0.0000 C   0  0  0  0  0  0  0  0  0  5  0  0
    2.7431    0.0122    0.0000 C   0  0  0  0  0  0  0  0  0  6  0  0
    1.2431    0.0051    0.0000 C   0  0  0  0  0  0  0  0  0  7  0  0
    0.4870    1.3006    0.0000 C   0  0  0  0  0  0  0  0  0  8  0  0
    1.2309    2.6032    0.0000 C   0  0  0  0  0  0  0  0  0  9  0  0
    0.4748    3.8987    0.0000 O   0  0  0  0  0  0  0  0  0 10  0  0
    2.7309    2.6102    0.0000 O   0  0  0  0  0  0  0  0  0 11  0  0
    2.9041   -2.3253    0.0000 H   0  0  0  0  0  0  0  0  0  0  0  0
    9.2946   -0.5060    0.0000 C   0  0  0  0  0  0  0  0  0  0  0  0
    7.9991   -1.2621    0.0000 C   0  0  0  0  0  0  0  0  0  0  0  0
    7.2552   -2.5647    0.0000 C   0  0  0  0  0  0  0  0  0  0  0  0
    5.7553   -2.5717    0.0000 C   0  0  0  0  0  0  0  0  0  0  0  0
    7.2430    0.0334    0.0000 O   0  0  0  0  0  0  0  0  0  0  0  0
    9.3017   -2.0060    0.0000 C   0  0  0  0  0  0  0  0  0  0  0  0
    5.7308    2.6244    0.0000 O   0  0  0  0  0  0  0  0  0  0  0  0
    4.9747    3.9198    0.0000 C   0  0  0  0  0  0  0  0  0  0  0  0
   -0.7130    1.2950    0.0000 H   0  0  0  0  0  0  0  0  0  0  0  0
    0.4992   -1.2974    0.0000 C   0  0  0  0  0  0  0  0  0  0  0  0
    1.2553   -2.5929    0.0000 C   0  0  0  0  0  0  0  0  0  0  0  0
    0.5114   -3.8955    0.0000 C   0  0  0  0  0  0  0  0  0  0  0  0
   -0.9886   -3.9025    0.0000 C   0  0  0  0  0  0  0  0  0  0  0  0
   -1.7447   -2.6070    0.0000 C   0  0  0  0  0  0  0  0  0  0  0  0
   -1.0008   -1.3045    0.0000 C   0  0  0  0  0  0  0  0  0  0  0  0
  1  2  1  0  0  0  0
  1  6  2  0  0  0  0
  2  3  2  0  0  0  0
  3  4  1  0  0  0  0
  4  5  2  0  0  0  0
  5  6  1  0  0  0  0
  5 11  1  0  0  0  0
  6  7  1  0  0  0  0
  7  8  2  0  0  0  0
  8  9  1  0  0  0  0
  9 10  2  0  0  0  0
  9 11  1  0  0  0  0
  1 12  1  0  0  0  0
 13 14  1  0  0  0  0
 14 15  1  0  0  0  0
 14 17  1  0  0  0  0
 14 18  1  0  0  0  0
 15 16  2  0  0  0  0
  2 16  1  0  0  0  0
  3 17  1  0  0  0  0
 19 20  1  0  0  0  0
  4 19  1  0  0  0  0
  8 21  1  0  0  0  0
 22 23  1  0  0  0  0
 22 27  2  0  0  0  0
 23 24  2  0  0  0  0
 24 25  1  0  0  0  0
 25 26  2  0  0  0  0
 26 27  1  0  0  0  0
  7 22  1  0  0  0  0
M  END
> <score_Kier2>
0.516742

$$$$
suggested molecule #407
 MOE2019            2D

 27 30  0  0  0  0  0  0  0  0999 V2000
    3.4992   -1.2833    0.0000 C   0  0  0  0  0  0  0  0  0  1  0  0
    4.9992   -1.2762    0.0000 C   0  0  0  0  0  0  0  0  0  2  0  0
    5.7430    0.0263    0.0000 C   0  0  0  0  0  0  0  0  0  3  0  0
    4.9869    1.3218    0.0000 C   0  0  0  0  0  0  0  0  0  4  0  0
    3.4870    1.3147    0.0000 C   0  0  0  0  0  0  0  0  0  5  0  0
    2.7431    0.0122    0.0000 C   0  0  0  0  0  0  0  0  0  6  0  0
    1.2431    0.0051    0.0000 C   0  0  0  0  0  0  0  0  0  7  0  0
    0.4870    1.3006    0.0000 C   0  0  0  0  0  0  0  0  0  8  0  0
    1.2309    2.6032    0.0000 C   0  0  0  0  0  0  0  0  0  9  0  0
    0.4748    3.8987    0.0000 O   0  0  0  0  0  0  0  0  0 10  0  0
    2.7309    2.6102    0.0000 O   0  0  0  0  0  0  0  0  0 11  0  0
    2.9041   -2.3253    0.0000 H   0  0  0  0  0  0  0  0  0  0  0  0
    9.2946   -0.5060    0.0000 C   0  0  0  0  0  0  0  0  0  0  0  0
    7.9991   -1.2621    0.0000 C   0  0  0  0  0  0  0  0  0  0  0  0
    7.2552   -2.5647    0.0000 C   0  0  0  0  0  0  0  0  0  0  0  0
    5.7553   -2.5717    0.0000 C   0  0  0  0  0  0  0  0  0  0  0  0
    7.2430    0.0334    0.0000 O   0  0  0  0  0  0  0  0  0  0  0  0
    9.3017   -2.0060    0.0000 C   0  0  0  0  0  0  0  0  0  0  0  0
    5.7308    2.6244    0.0000 O   0  0  0  0  0  0  0  0  0  0  0  0
    4.9747    3.9198    0.0000 C   0  0  0  0  0  0  0  0  0  0  0  0
   -0.7130    1.2950    0.0000 H   0  0  0  0  0  0  0  0  0  0  0  0
    0.4992   -1.2974    0.0000 C   0  0  0  0  0  0  0  0  0  0  0  0
    1.2553   -2.5929    0.0000 C   0  0  0  0  0  0  0  0  0  0  0  0
    0.5114   -3.8955    0.0000 C   0  0  0  0  0  0  0  0  0  0  0  0
   -0.9886   -3.9025    0.0000 C   0  0  0  0  0  0  0  0  0  0  0  0
   -1.7447   -2.6070    0.0000 C   0  0  0  0  0  0  0  0  0  0  0  0
   -1.0008   -1.3045    0.0000 C   0  0  0  0  0  0  0  0  0  0  0  0
  1  2  1  0  0  0  0
  1  6  2  0  0  0  0
  2  3  2  0  0  0  0
  3  4  1  0  0  0  0
  4  5  2  0  0  0  0
  5  6  1  0  0  0  0
  5 11  1  0  0  0  0
  6  7  1  0  0  0  0
  7  8  2  0  0  0  0
  8  9  1  0  0  0  0
  9 10  2  0  0  0  0
  9 11  1  0  0  0  0
  1 12  1  0  0  0  0
 13 14  1  0  0  0  0
 14 15  1  0  0  0  0
 14 17  1  0  0  0  0
 14 18  1  0  0  0  0
 15 16  2  0  0  0  0
  2 16  1  0  0  0  0
  3 17  1  0  0  0  0
 19 20  1  0  0  0  0
  4 19  1  0  0  0  0
  8 21  1  0  0  0  0
 22 23  1  0  0  0  0
 22 27  2  0  0  0  0
 23 24  2  0  0  0  0
 24 25  1  0  0  0  0
 25 26  2  0  0  0  0
 26 27  1  0  0  0  0
  7 22  1  0  0  0  0
M  END
> <score_Kier3>
0.512237

$$$$
suggested molecule #408
 MOE2019            2D

 27 30  0  0  0  0  0  0  0  0999 V2000
    3.4992   -1.2833    0.0000 C   0  0  0  0  0  0  0  0  0  1  0  0
    4.9992   -1.2762    0.0000 C   0  0  0  0  0  0  0  0  0  2  0  0
    5.7430    0.0263    0.0000 C   0  0  0  0  0  0  0  0  0  3  0  0
    4.9869    1.3218    0.0000 C   0  0  0  0  0  0  0  0  0  4  0  0
    3.4870    1.3147    0.0000 C   0  0  0  0  0  0  0  0  0  5  0  0
    2.7431    0.0122    0.0000 C   0  0  0  0  0  0  0  0  0  6  0  0
    1.2431    0.0051    0.0000 C   0  0  0  0  0  0  0  0  0  7  0  0
    0.4870    1.3006    0.0000 C   0  0  0  0  0  0  0  0  0  8  0  0
    1.2309    2.6032    0.0000 C   0  0  0  0  0  0  0  0  0  9  0  0
    0.4748    3.8987    0.0000 O   0  0  0  0  0  0  0  0  0 10  0  0
    2.7309    2.6102    0.0000 O   0  0  0  0  0  0  0  0  0 11  0  0
    2.9041   -2.3253    0.0000 H   0  0  0  0  0  0  0  0  0  0  0  0
    9.2946   -0.5060    0.0000 C   0  0  0  0  0  0  0  0  0  0  0  0
    7.9991   -1.2621    0.0000 C   0  0  0  0  0  0  0  0  0  0  0  0
    7.2552   -2.5647    0.0000 C   0  0  0  0  0  0  0  0  0  0  0  0
    5.7553   -2.5717    0.0000 C   0  0  0  0  0  0  0  0  0  0  0  0
    7.2430    0.0334    0.0000 O   0  0  0  0  0  0  0  0  0  0  0  0
    9.3017   -2.0060    0.0000 C   0  0  0  0  0  0  0  0  0  0  0  0
    5.7308    2.6244    0.0000 O   0  0  0  0  0  0  0  0  0  0  0  0
    4.9747    3.9198    0.0000 C   0  0  0  0  0  0  0  0  0  0  0  0
   -0.7130    1.2950    0.0000 H   0  0  0  0  0  0  0  0  0  0  0  0
    0.4992   -1.2974    0.0000 C   0  0  0  0  0  0  0  0  0  0  0  0
    1.2553   -2.5929    0.0000 C   0  0  0  0  0  0  0  0  0  0  0  0
    0.5114   -3.8955    0.0000 C   0  0  0  0  0  0  0  0  0  0  0  0
   -0.9886   -3.9025    0.0000 C   0  0  0  0  0  0  0  0  0  0  0  0
   -1.7447   -2.6070    0.0000 C   0  0  0  0  0  0  0  0  0  0  0  0
   -1.0008   -1.3045    0.0000 C   0  0  0  0  0  0  0  0  0  0  0  0
  1  2  1  0  0  0  0
  1  6  2  0  0  0  0
  2  3  2  0  0  0  0
  3  4  1  0  0  0  0
  4  5  2  0  0  0  0
  5  6  1  0  0  0  0
  5 11  1  0  0  0  0
  6  7  1  0  0  0  0
  7  8  2  0  0  0  0
  8  9  1  0  0  0  0
  9 10  2  0  0  0  0
  9 11  1  0  0  0  0
  1 12  1  0  0  0  0
 13 14  1  0  0  0  0
 14 15  1  0  0  0  0
 14 17  1  0  0  0  0
 14 18  1  0  0  0  0
 15 16  2  0  0  0  0
  2 16  1  0  0  0  0
  3 17  1  0  0  0  0
 19 20  1  0  0  0  0
  4 19  1  0  0  0  0
  8 21  1  0  0  0  0
 22 23  1  0  0  0  0
 22 27  2  0  0  0  0
 23 24  2  0  0  0  0
 24 25  1  0  0  0  0
 25 26  2  0  0  0  0
 26 27  1  0  0  0  0
  7 22  1  0  0  0  0
M  END
> <score_KierA1>
0.518435

$$$$
suggested molecule #409
 MOE2019            2D

 27 30  0  0  0  0  0  0  0  0999 V2000
    3.4992   -1.2833    0.0000 C   0  0  0  0  0  0  0  0  0  1  0  0
    4.9992   -1.2762    0.0000 C   0  0  0  0  0  0  0  0  0  2  0  0
    5.7430    0.0263    0.0000 C   0  0  0  0  0  0  0  0  0  3  0  0
    4.9869    1.3218    0.0000 C   0  0  0  0  0  0  0  0  0  4  0  0
    3.4870    1.3147    0.0000 C   0  0  0  0  0  0  0  0  0  5  0  0
    2.7431    0.0122    0.0000 C   0  0  0  0  0  0  0  0  0  6  0  0
    1.2431    0.0051    0.0000 C   0  0  0  0  0  0  0  0  0  7  0  0
    0.4870    1.3006    0.0000 C   0  0  0  0  0  0  0  0  0  8  0  0
    1.2309    2.6032    0.0000 C   0  0  0  0  0  0  0  0  0  9  0  0
    0.4748    3.8987    0.0000 O   0  0  0  0  0  0  0  0  0 10  0  0
    2.7309    2.6102    0.0000 O   0  0  0  0  0  0  0  0  0 11  0  0
    2.9041   -2.3253    0.0000 H   0  0  0  0  0  0  0  0  0  0  0  0
    9.2946   -0.5060    0.0000 C   0  0  0  0  0  0  0  0  0  0  0  0
    7.9991   -1.2621    0.0000 C   0  0  0  0  0  0  0  0  0  0  0  0
    7.2552   -2.5647    0.0000 C   0  0  0  0  0  0  0  0  0  0  0  0
    5.7553   -2.5717    0.0000 C   0  0  0  0  0  0  0  0  0  0  0  0
    7.2430    0.0334    0.0000 O   0  0  0  0  0  0  0  0  0  0  0  0
    9.3017   -2.0060    0.0000 C   0  0  0  0  0  0  0  0  0  0  0  0
    5.7308    2.6244    0.0000 O   0  0  0  0  0  0  0  0  0  0  0  0
    4.9747    3.9198    0.0000 C   0  0  0  0  0  0  0  0  0  0  0  0
   -0.7130    1.2950    0.0000 H   0  0  0  0  0  0  0  0  0  0  0  0
    0.4992   -1.2974    0.0000 C   0  0  0  0  0  0  0  0  0  0  0  0
    1.2553   -2.5929    0.0000 C   0  0  0  0  0  0  0  0  0  0  0  0
    0.5114   -3.8955    0.0000 C   0  0  0  0  0  0  0  0  0  0  0  0
   -0.9886   -3.9025    0.0000 C   0  0  0  0  0  0  0  0  0  0  0  0
   -1.7447   -2.6070    0.0000 C   0  0  0  0  0  0  0  0  0  0  0  0
   -1.0008   -1.3045    0.0000 C   0  0  0  0  0  0  0  0  0  0  0  0
  1  2  1  0  0  0  0
  1  6  2  0  0  0  0
  2  3  2  0  0  0  0
  3  4  1  0  0  0  0
  4  5  2  0  0  0  0
  5  6  1  0  0  0  0
  5 11  1  0  0  0  0
  6  7  1  0  0  0  0
  7  8  2  0  0  0  0
  8  9  1  0  0  0  0
  9 10  2  0  0  0  0
  9 11  1  0  0  0  0
  1 12  1  0  0  0  0
 13 14  1  0  0  0  0
 14 15  1  0  0  0  0
 14 17  1  0  0  0  0
 14 18  1  0  0  0  0
 15 16  2  0  0  0  0
  2 16  1  0  0  0  0
  3 17  1  0  0  0  0
 19 20  1  0  0  0  0
  4 19  1  0  0  0  0
  8 21  1  0  0  0  0
 22 23  1  0  0  0  0
 22 27  2  0  0  0  0
 23 24  2  0  0  0  0
 24 25  1  0  0  0  0
 25 26  2  0  0  0  0
 26 27  1  0  0  0  0
  7 22  1  0  0  0  0
M  END
> <score_KierA2>
0.517364

$$$$
suggested molecule #410
 MOE2019            2D

 27 30  0  0  0  0  0  0  0  0999 V2000
    3.4992   -1.2833    0.0000 C   0  0  0  0  0  0  0  0  0  1  0  0
    4.9992   -1.2762    0.0000 C   0  0  0  0  0  0  0  0  0  2  0  0
    5.7430    0.0263    0.0000 C   0  0  0  0  0  0  0  0  0  3  0  0
    4.9869    1.3218    0.0000 C   0  0  0  0  0  0  0  0  0  4  0  0
    3.4870    1.3147    0.0000 C   0  0  0  0  0  0  0  0  0  5  0  0
    2.7431    0.0122    0.0000 C   0  0  0  0  0  0  0  0  0  6  0  0
    1.2431    0.0051    0.0000 C   0  0  0  0  0  0  0  0  0  7  0  0
    0.4870    1.3006    0.0000 C   0  0  0  0  0  0  0  0  0  8  0  0
    1.2309    2.6032    0.0000 C   0  0  0  0  0  0  0  0  0  9  0  0
    0.4748    3.8987    0.0000 O   0  0  0  0  0  0  0  0  0 10  0  0
    2.7309    2.6102    0.0000 O   0  0  0  0  0  0  0  0  0 11  0  0
    2.9041   -2.3253    0.0000 H   0  0  0  0  0  0  0  0  0  0  0  0
    9.2946   -0.5060    0.0000 C   0  0  0  0  0  0  0  0  0  0  0  0
    7.9991   -1.2621    0.0000 C   0  0  0  0  0  0  0  0  0  0  0  0
    7.2552   -2.5647    0.0000 C   0  0  0  0  0  0  0  0  0  0  0  0
    5.7553   -2.5717    0.0000 C   0  0  0  0  0  0  0  0  0  0  0  0
    7.2430    0.0334    0.0000 O   0  0  0  0  0  0  0  0  0  0  0  0
    9.3017   -2.0060    0.0000 C   0  0  0  0  0  0  0  0  0  0  0  0
    5.7308    2.6244    0.0000 O   0  0  0  0  0  0  0  0  0  0  0  0
    4.9747    3.9198    0.0000 C   0  0  0  0  0  0  0  0  0  0  0  0
   -0.7130    1.2950    0.0000 H   0  0  0  0  0  0  0  0  0  0  0  0
    0.4992   -1.2974    0.0000 C   0  0  0  0  0  0  0  0  0  0  0  0
    1.2553   -2.5929    0.0000 C   0  0  0  0  0  0  0  0  0  0  0  0
    0.5114   -3.8955    0.0000 C   0  0  0  0  0  0  0  0  0  0  0  0
   -0.9886   -3.9025    0.0000 C   0  0  0  0  0  0  0  0  0  0  0  0
   -1.7447   -2.6070    0.0000 C   0  0  0  0  0  0  0  0  0  0  0  0
   -1.0008   -1.3045    0.0000 C   0  0  0  0  0  0  0  0  0  0  0  0
  1  2  1  0  0  0  0
  1  6  2  0  0  0  0
  2  3  2  0  0  0  0
  3  4  1  0  0  0  0
  4  5  2  0  0  0  0
  5  6  1  0  0  0  0
  5 11  1  0  0  0  0
  6  7  1  0  0  0  0
  7  8  2  0  0  0  0
  8  9  1  0  0  0  0
  9 10  2  0  0  0  0
  9 11  1  0  0  0  0
  1 12  1  0  0  0  0
 13 14  1  0  0  0  0
 14 15  1  0  0  0  0
 14 17  1  0  0  0  0
 14 18  1  0  0  0  0
 15 16  2  0  0  0  0
  2 16  1  0  0  0  0
  3 17  1  0  0  0  0
 19 20  1  0  0  0  0
  4 19  1  0  0  0  0
  8 21  1  0  0  0  0
 22 23  1  0  0  0  0
 22 27  2  0  0  0  0
 23 24  2  0  0  0  0
 24 25  1  0  0  0  0
 25 26  2  0  0  0  0
 26 27  1  0  0  0  0
  7 22  1  0  0  0  0
M  END
> <score_KierA3>
0.513173

$$$$
suggested molecule #411
 MOE2019            2D

 27 30  0  0  0  0  0  0  0  0999 V2000
    3.4992   -1.2833    0.0000 C   0  0  0  0  0  0  0  0  0  1  0  0
    4.9992   -1.2762    0.0000 C   0  0  0  0  0  0  0  0  0  2  0  0
    5.7430    0.0263    0.0000 C   0  0  0  0  0  0  0  0  0  3  0  0
    4.9869    1.3218    0.0000 C   0  0  0  0  0  0  0  0  0  4  0  0
    3.4870    1.3147    0.0000 C   0  0  0  0  0  0  0  0  0  5  0  0
    2.7431    0.0122    0.0000 C   0  0  0  0  0  0  0  0  0  6  0  0
    1.2431    0.0051    0.0000 C   0  0  0  0  0  0  0  0  0  7  0  0
    0.4870    1.3006    0.0000 C   0  0  0  0  0  0  0  0  0  8  0  0
    1.2309    2.6032    0.0000 C   0  0  0  0  0  0  0  0  0  9  0  0
    0.4748    3.8987    0.0000 O   0  0  0  0  0  0  0  0  0 10  0  0
    2.7309    2.6102    0.0000 O   0  0  0  0  0  0  0  0  0 11  0  0
    2.9041   -2.3253    0.0000 H   0  0  0  0  0  0  0  0  0  0  0  0
    9.2946   -0.5060    0.0000 C   0  0  0  0  0  0  0  0  0  0  0  0
    7.9991   -1.2621    0.0000 C   0  0  0  0  0  0  0  0  0  0  0  0
    7.2552   -2.5647    0.0000 C   0  0  0  0  0  0  0  0  0  0  0  0
    5.7553   -2.5717    0.0000 C   0  0  0  0  0  0  0  0  0  0  0  0
    7.2430    0.0334    0.0000 O   0  0  0  0  0  0  0  0  0  0  0  0
    9.3017   -2.0060    0.0000 C   0  0  0  0  0  0  0  0  0  0  0  0
    5.7308    2.6244    0.0000 O   0  0  0  0  0  0  0  0  0  0  0  0
    4.9747    3.9198    0.0000 C   0  0  0  0  0  0  0  0  0  0  0  0
   -0.7130    1.2950    0.0000 H   0  0  0  0  0  0  0  0  0  0  0  0
    0.4992   -1.2974    0.0000 C   0  0  0  0  0  0  0  0  0  0  0  0
    1.2553   -2.5929    0.0000 C   0  0  0  0  0  0  0  0  0  0  0  0
    0.5114   -3.8955    0.0000 C   0  0  0  0  0  0  0  0  0  0  0  0
   -0.9886   -3.9025    0.0000 C   0  0  0  0  0  0  0  0  0  0  0  0
   -1.7447   -2.6070    0.0000 C   0  0  0  0  0  0  0  0  0  0  0  0
   -1.0008   -1.3045    0.0000 C   0  0  0  0  0  0  0  0  0  0  0  0
  1  2  1  0  0  0  0
  1  6  2  0  0  0  0
  2  3  2  0  0  0  0
  3  4  1  0  0  0  0
  4  5  2  0  0  0  0
  5  6  1  0  0  0  0
  5 11  1  0  0  0  0
  6  7  1  0  0  0  0
  7  8  2  0  0  0  0
  8  9  1  0  0  0  0
  9 10  2  0  0  0  0
  9 11  1  0  0  0  0
  1 12  1  0  0  0  0
 13 14  1  0  0  0  0
 14 15  1  0  0  0  0
 14 17  1  0  0  0  0
 14 18  1  0  0  0  0
 15 16  2  0  0  0  0
  2 16  1  0  0  0  0
  3 17  1  0  0  0  0
 19 20  1  0  0  0  0
  4 19  1  0  0  0  0
  8 21  1  0  0  0  0
 22 23  1  0  0  0  0
 22 27  2  0  0  0  0
 23 24  2  0  0  0  0
 24 25  1  0  0  0  0
 25 26  2  0  0  0  0
 26 27  1  0  0  0  0
  7 22  1  0  0  0  0
M  END
> <score_KierFlex>
0.517428

$$$$
suggested molecule #412
 MOE2019            2D

 32 35  0  0  0  0  0  0  0  0999 V2000
    3.4992   -1.2833    0.0000 C   0  0  0  0  0  0  0  0  0  1  0  0
    4.9992   -1.2762    0.0000 C   0  0  0  0  0  0  0  0  0  2  0  0
    5.7430    0.0263    0.0000 C   0  0  0  0  0  0  0  0  0  3  0  0
    4.9869    1.3218    0.0000 C   0  0  0  0  0  0  0  0  0  4  0  0
    3.4870    1.3147    0.0000 C   0  0  0  0  0  0  0  0  0  5  0  0
    2.7431    0.0122    0.0000 C   0  0  0  0  0  0  0  0  0  6  0  0
    1.2431    0.0051    0.0000 C   0  0  0  0  0  0  0  0  0  7  0  0
    0.4870    1.3006    0.0000 C   0  0  0  0  0  0  0  0  0  8  0  0
    1.2309    2.6032    0.0000 C   0  0  0  0  0  0  0  0  0  9  0  0
    0.4748    3.8987    0.0000 O   0  0  0  0  0  0  0  0  0 10  0  0
    2.7309    2.6102    0.0000 O   0  0  0  0  0  0  0  0  0 11  0  0
    2.9041   -2.3253    0.0000 H   0  0  0  0  0  0  0  0  0  0  0  0
    9.2946   -0.5060    0.0000 C   0  0  0  0  0  0  0  0  0  0  0  0
    7.9991   -1.2621    0.0000 C   0  0  0  0  0  0  0  0  0  0  0  0
    7.2552   -2.5647    0.0000 C   0  0  0  0  0  0  0  0  0  0  0  0
    5.7553   -2.5717    0.0000 C   0  0  0  0  0  0  0  0  0  0  0  0
    7.2430    0.0334    0.0000 O   0  0  0  0  0  0  0  0  0  0  0  0
    9.3017   -2.0060    0.0000 C   0  0  0  0  0  0  0  0  0  0  0  0
    5.7308    2.6244    0.0000 O   0  0  0  0  0  0  0  0  0  0  0  0
    4.9747    3.9198    0.0000 C   0  0  0  0  0  0  0  0  0  0  0  0
   -0.7130    1.2950    0.0000 H   0  0  0  0  0  0  0  0  0  0  0  0
   -4.0007   -1.3186    0.0000 C   0  0  0  0  0  0  0  0  0  0  0  0
   -3.2446   -2.6141    0.0000 O   0  0  0  0  0  0  0  0  0  0  0  0
   -1.7447   -2.6070    0.0000 C   0  0  0  0  0  0  0  0  0  0  0  0
   -1.0008   -1.3045    0.0000 C   0  0  0  0  0  0  0  0  0  0  0  0
    0.4992   -1.2974    0.0000 C   0  0  0  0  0  0  0  0  0  0  0  0
    1.2553   -2.5929    0.0000 C   0  0  0  0  0  0  0  0  0  0  0  0
    0.5114   -3.8955    0.0000 C   0  0  0  0  0  0  0  0  0  0  0  0
   -0.9886   -3.9025    0.0000 C   0  0  0  0  0  0  0  0  0  0  0  0
   -1.7324   -5.2051    0.0000 O   0  0  0  0  0  0  0  0  0  0  0  0
    1.2675   -5.1910    0.0000 O   0  0  0  0  0  0  0  0  0  0  0  0
    0.5236   -6.4935    0.0000 C   0  0  0  0  0  0  0  0  0  0  0  0
  1  2  1  0  0  0  0
  1  6  2  0  0  0  0
  2  3  2  0  0  0  0
  3  4  1  0  0  0  0
  4  5  2  0  0  0  0
  5  6  1  0  0  0  0
  5 11  1  0  0  0  0
  6  7  1  0  0  0  0
  7  8  2  0  0  0  0
  8  9  1  0  0  0  0
  9 10  2  0  0  0  0
  9 11  1  0  0  0  0
  1 12  1  0  0  0  0
 13 14  1  0  0  0  0
 14 15  1  0  0  0  0
 14 17  1  0  0  0  0
 14 18  1  0  0  0  0
 15 16  2  0  0  0  0
  2 16  1  0  0  0  0
  3 17  1  0  0  0  0
 19 20  1  0  0  0  0
  4 19  1  0  0  0  0
  8 21  1  0  0  0  0
 22 23  1  0  0  0  0
 23 24  1  0  0  0  0
 24 25  1  0  0  0  0
 24 29  2  0  0  0  0
 25 26  2  0  0  0  0
 26 27  1  0  0  0  0
 27 28  2  0  0  0  0
 28 29  1  0  0  0  0
 28 31  1  0  0  0  0
 29 30  1  0  0  0  0
 31 32  1  0  0  0  0
  7 26  1  0  0  0  0
M  END
> <score_Kier3>
0.511704

$$$$
suggested molecule #413
 MOE2019            2D

 32 35  0  0  0  0  0  0  0  0999 V2000
    3.4992   -1.2833    0.0000 C   0  0  0  0  0  0  0  0  0  1  0  0
    4.9992   -1.2762    0.0000 C   0  0  0  0  0  0  0  0  0  2  0  0
    5.7430    0.0263    0.0000 C   0  0  0  0  0  0  0  0  0  3  0  0
    4.9869    1.3218    0.0000 C   0  0  0  0  0  0  0  0  0  4  0  0
    3.4870    1.3147    0.0000 C   0  0  0  0  0  0  0  0  0  5  0  0
    2.7431    0.0122    0.0000 C   0  0  0  0  0  0  0  0  0  6  0  0
    1.2431    0.0051    0.0000 C   0  0  0  0  0  0  0  0  0  7  0  0
    0.4870    1.3006    0.0000 C   0  0  0  0  0  0  0  0  0  8  0  0
    1.2309    2.6032    0.0000 C   0  0  0  0  0  0  0  0  0  9  0  0
    0.4748    3.8987    0.0000 O   0  0  0  0  0  0  0  0  0 10  0  0
    2.7309    2.6102    0.0000 O   0  0  0  0  0  0  0  0  0 11  0  0
    2.9041   -2.3253    0.0000 H   0  0  0  0  0  0  0  0  0  0  0  0
    9.2946   -0.5060    0.0000 C   0  0  0  0  0  0  0  0  0  0  0  0
    7.9991   -1.2621    0.0000 C   0  0  0  0  0  0  0  0  0  0  0  0
    7.2552   -2.5647    0.0000 C   0  0  0  0  0  0  0  0  0  0  0  0
    5.7553   -2.5717    0.0000 C   0  0  0  0  0  0  0  0  0  0  0  0
    7.2430    0.0334    0.0000 O   0  0  0  0  0  0  0  0  0  0  0  0
    9.3017   -2.0060    0.0000 C   0  0  0  0  0  0  0  0  0  0  0  0
    5.7308    2.6244    0.0000 O   0  0  0  0  0  0  0  0  0  0  0  0
    4.9747    3.9198    0.0000 C   0  0  0  0  0  0  0  0  0  0  0  0
   -0.7130    1.2950    0.0000 H   0  0  0  0  0  0  0  0  0  0  0  0
   -4.0007   -1.3186    0.0000 C   0  0  0  0  0  0  0  0  0  0  0  0
   -3.2446   -2.6141    0.0000 O   0  0  0  0  0  0  0  0  0  0  0  0
   -1.7447   -2.6070    0.0000 C   0  0  0  0  0  0  0  0  0  0  0  0
   -1.0008   -1.3045    0.0000 C   0  0  0  0  0  0  0  0  0  0  0  0
    0.4992   -1.2974    0.0000 C   0  0  0  0  0  0  0  0  0  0  0  0
    1.2553   -2.5929    0.0000 C   0  0  0  0  0  0  0  0  0  0  0  0
    0.5114   -3.8955    0.0000 C   0  0  0  0  0  0  0  0  0  0  0  0
   -0.9886   -3.9025    0.0000 C   0  0  0  0  0  0  0  0  0  0  0  0
   -1.7324   -5.2051    0.0000 O   0  0  0  0  0  0  0  0  0  0  0  0
    1.2675   -5.1910    0.0000 O   0  0  0  0  0  0  0  0  0  0  0  0
    0.5236   -6.4935    0.0000 C   0  0  0  0  0  0  0  0  0  0  0  0
  1  2  1  0  0  0  0
  1  6  2  0  0  0  0
  2  3  2  0  0  0  0
  3  4  1  0  0  0  0
  4  5  2  0  0  0  0
  5  6  1  0  0  0  0
  5 11  1  0  0  0  0
  6  7  1  0  0  0  0
  7  8  2  0  0  0  0
  8  9  1  0  0  0  0
  9 10  2  0  0  0  0
  9 11  1  0  0  0  0
  1 12  1  0  0  0  0
 13 14  1  0  0  0  0
 14 15  1  0  0  0  0
 14 17  1  0  0  0  0
 14 18  1  0  0  0  0
 15 16  2  0  0  0  0
  2 16  1  0  0  0  0
  3 17  1  0  0  0  0
 19 20  1  0  0  0  0
  4 19  1  0  0  0  0
  8 21  1  0  0  0  0
 22 23  1  0  0  0  0
 23 24  1  0  0  0  0
 24 25  1  0  0  0  0
 24 29  2  0  0  0  0
 25 26  2  0  0  0  0
 26 27  1  0  0  0  0
 27 28  2  0  0  0  0
 28 29  1  0  0  0  0
 28 31  1  0  0  0  0
 29 30  1  0  0  0  0
 31 32  1  0  0  0  0
  7 26  1  0  0  0  0
M  END
> <score_KierA1>
0.517731

$$$$
suggested molecule #414
 MOE2019            2D

 32 35  0  0  0  0  0  0  0  0999 V2000
    3.4992   -1.2833    0.0000 C   0  0  0  0  0  0  0  0  0  1  0  0
    4.9992   -1.2762    0.0000 C   0  0  0  0  0  0  0  0  0  2  0  0
    5.7430    0.0263    0.0000 C   0  0  0  0  0  0  0  0  0  3  0  0
    4.9869    1.3218    0.0000 C   0  0  0  0  0  0  0  0  0  4  0  0
    3.4870    1.3147    0.0000 C   0  0  0  0  0  0  0  0  0  5  0  0
    2.7431    0.0122    0.0000 C   0  0  0  0  0  0  0  0  0  6  0  0
    1.2431    0.0051    0.0000 C   0  0  0  0  0  0  0  0  0  7  0  0
    0.4870    1.3006    0.0000 C   0  0  0  0  0  0  0  0  0  8  0  0
    1.2309    2.6032    0.0000 C   0  0  0  0  0  0  0  0  0  9  0  0
    0.4748    3.8987    0.0000 O   0  0  0  0  0  0  0  0  0 10  0  0
    2.7309    2.6102    0.0000 O   0  0  0  0  0  0  0  0  0 11  0  0
    2.9041   -2.3253    0.0000 H   0  0  0  0  0  0  0  0  0  0  0  0
    9.2946   -0.5060    0.0000 C   0  0  0  0  0  0  0  0  0  0  0  0
    7.9991   -1.2621    0.0000 C   0  0  0  0  0  0  0  0  0  0  0  0
    7.2552   -2.5647    0.0000 C   0  0  0  0  0  0  0  0  0  0  0  0
    5.7553   -2.5717    0.0000 C   0  0  0  0  0  0  0  0  0  0  0  0
    7.2430    0.0334    0.0000 O   0  0  0  0  0  0  0  0  0  0  0  0
    9.3017   -2.0060    0.0000 C   0  0  0  0  0  0  0  0  0  0  0  0
    5.7308    2.6244    0.0000 O   0  0  0  0  0  0  0  0  0  0  0  0
    4.9747    3.9198    0.0000 C   0  0  0  0  0  0  0  0  0  0  0  0
   -0.7130    1.2950    0.0000 H   0  0  0  0  0  0  0  0  0  0  0  0
   -4.0007   -1.3186    0.0000 C   0  0  0  0  0  0  0  0  0  0  0  0
   -3.2446   -2.6141    0.0000 O   0  0  0  0  0  0  0  0  0  0  0  0
   -1.7447   -2.6070    0.0000 C   0  0  0  0  0  0  0  0  0  0  0  0
   -1.0008   -1.3045    0.0000 C   0  0  0  0  0  0  0  0  0  0  0  0
    0.4992   -1.2974    0.0000 C   0  0  0  0  0  0  0  0  0  0  0  0
    1.2553   -2.5929    0.0000 C   0  0  0  0  0  0  0  0  0  0  0  0
    0.5114   -3.8955    0.0000 C   0  0  0  0  0  0  0  0  0  0  0  0
   -0.9886   -3.9025    0.0000 C   0  0  0  0  0  0  0  0  0  0  0  0
   -1.7324   -5.2051    0.0000 O   0  0  0  0  0  0  0  0  0  0  0  0
    1.2675   -5.1910    0.0000 O   0  0  0  0  0  0  0  0  0  0  0  0
    0.5236   -6.4935    0.0000 C   0  0  0  0  0  0  0  0  0  0  0  0
  1  2  1  0  0  0  0
  1  6  2  0  0  0  0
  2  3  2  0  0  0  0
  3  4  1  0  0  0  0
  4  5  2  0  0  0  0
  5  6  1  0  0  0  0
  5 11  1  0  0  0  0
  6  7  1  0  0  0  0
  7  8  2  0  0  0  0
  8  9  1  0  0  0  0
  9 10  2  0  0  0  0
  9 11  1  0  0  0  0
  1 12  1  0  0  0  0
 13 14  1  0  0  0  0
 14 15  1  0  0  0  0
 14 17  1  0  0  0  0
 14 18  1  0  0  0  0
 15 16  2  0  0  0  0
  2 16  1  0  0  0  0
  3 17  1  0  0  0  0
 19 20  1  0  0  0  0
  4 19  1  0  0  0  0
  8 21  1  0  0  0  0
 22 23  1  0  0  0  0
 23 24  1  0  0  0  0
 24 25  1  0  0  0  0
 24 29  2  0  0  0  0
 25 26  2  0  0  0  0
 26 27  1  0  0  0  0
 27 28  2  0  0  0  0
 28 29  1  0  0  0  0
 28 31  1  0  0  0  0
 29 30  1  0  0  0  0
 31 32  1  0  0  0  0
  7 26  1  0  0  0  0
M  END
> <score_KierA2>
0.516792

$$$$
suggested molecule #415
 MOE2019            2D

 32 35  0  0  0  0  0  0  0  0999 V2000
    3.4992   -1.2833    0.0000 C   0  0  0  0  0  0  0  0  0  1  0  0
    4.9992   -1.2762    0.0000 C   0  0  0  0  0  0  0  0  0  2  0  0
    5.7430    0.0263    0.0000 C   0  0  0  0  0  0  0  0  0  3  0  0
    4.9869    1.3218    0.0000 C   0  0  0  0  0  0  0  0  0  4  0  0
    3.4870    1.3147    0.0000 C   0  0  0  0  0  0  0  0  0  5  0  0
    2.7431    0.0122    0.0000 C   0  0  0  0  0  0  0  0  0  6  0  0
    1.2431    0.0051    0.0000 C   0  0  0  0  0  0  0  0  0  7  0  0
    0.4870    1.3006    0.0000 C   0  0  0  0  0  0  0  0  0  8  0  0
    1.2309    2.6032    0.0000 C   0  0  0  0  0  0  0  0  0  9  0  0
    0.4748    3.8987    0.0000 O   0  0  0  0  0  0  0  0  0 10  0  0
    2.7309    2.6102    0.0000 O   0  0  0  0  0  0  0  0  0 11  0  0
    2.9041   -2.3253    0.0000 H   0  0  0  0  0  0  0  0  0  0  0  0
    9.2946   -0.5060    0.0000 C   0  0  0  0  0  0  0  0  0  0  0  0
    7.9991   -1.2621    0.0000 C   0  0  0  0  0  0  0  0  0  0  0  0
    7.2552   -2.5647    0.0000 C   0  0  0  0  0  0  0  0  0  0  0  0
    5.7553   -2.5717    0.0000 C   0  0  0  0  0  0  0  0  0  0  0  0
    7.2430    0.0334    0.0000 O   0  0  0  0  0  0  0  0  0  0  0  0
    9.3017   -2.0060    0.0000 C   0  0  0  0  0  0  0  0  0  0  0  0
    5.7308    2.6244    0.0000 O   0  0  0  0  0  0  0  0  0  0  0  0
    4.9747    3.9198    0.0000 C   0  0  0  0  0  0  0  0  0  0  0  0
   -0.7130    1.2950    0.0000 H   0  0  0  0  0  0  0  0  0  0  0  0
   -4.0007   -1.3186    0.0000 C   0  0  0  0  0  0  0  0  0  0  0  0
   -3.2446   -2.6141    0.0000 O   0  0  0  0  0  0  0  0  0  0  0  0
   -1.7447   -2.6070    0.0000 C   0  0  0  0  0  0  0  0  0  0  0  0
   -1.0008   -1.3045    0.0000 C   0  0  0  0  0  0  0  0  0  0  0  0
    0.4992   -1.2974    0.0000 C   0  0  0  0  0  0  0  0  0  0  0  0
    1.2553   -2.5929    0.0000 C   0  0  0  0  0  0  0  0  0  0  0  0
    0.5114   -3.8955    0.0000 C   0  0  0  0  0  0  0  0  0  0  0  0
   -0.9886   -3.9025    0.0000 C   0  0  0  0  0  0  0  0  0  0  0  0
   -1.7324   -5.2051    0.0000 O   0  0  0  0  0  0  0  0  0  0  0  0
    1.2675   -5.1910    0.0000 O   0  0  0  0  0  0  0  0  0  0  0  0
    0.5236   -6.4935    0.0000 C   0  0  0  0  0  0  0  0  0  0  0  0
  1  2  1  0  0  0  0
  1  6  2  0  0  0  0
  2  3  2  0  0  0  0
  3  4  1  0  0  0  0
  4  5  2  0  0  0  0
  5  6  1  0  0  0  0
  5 11  1  0  0  0  0
  6  7  1  0  0  0  0
  7  8  2  0  0  0  0
  8  9  1  0  0  0  0
  9 10  2  0  0  0  0
  9 11  1  0  0  0  0
  1 12  1  0  0  0  0
 13 14  1  0  0  0  0
 14 15  1  0  0  0  0
 14 17  1  0  0  0  0
 14 18  1  0  0  0  0
 15 16  2  0  0  0  0
  2 16  1  0  0  0  0
  3 17  1  0  0  0  0
 19 20  1  0  0  0  0
  4 19  1  0  0  0  0
  8 21  1  0  0  0  0
 22 23  1  0  0  0  0
 23 24  1  0  0  0  0
 24 25  1  0  0  0  0
 24 29  2  0  0  0  0
 25 26  2  0  0  0  0
 26 27  1  0  0  0  0
 27 28  2  0  0  0  0
 28 29  1  0  0  0  0
 28 31  1  0  0  0  0
 29 30  1  0  0  0  0
 31 32  1  0  0  0  0
  7 26  1  0  0  0  0
M  END
> <score_KierA3>
0.512413

$$$$
suggested molecule #416
 MOE2019            2D

 32 35  0  0  0  0  0  0  0  0999 V2000
    3.4992   -1.2833    0.0000 C   0  0  0  0  0  0  0  0  0  1  0  0
    4.9992   -1.2762    0.0000 C   0  0  0  0  0  0  0  0  0  2  0  0
    5.7430    0.0263    0.0000 C   0  0  0  0  0  0  0  0  0  3  0  0
    4.9869    1.3218    0.0000 C   0  0  0  0  0  0  0  0  0  4  0  0
    3.4870    1.3147    0.0000 C   0  0  0  0  0  0  0  0  0  5  0  0
    2.7431    0.0122    0.0000 C   0  0  0  0  0  0  0  0  0  6  0  0
    1.2431    0.0051    0.0000 C   0  0  0  0  0  0  0  0  0  7  0  0
    0.4870    1.3006    0.0000 C   0  0  0  0  0  0  0  0  0  8  0  0
    1.2309    2.6032    0.0000 C   0  0  0  0  0  0  0  0  0  9  0  0
    0.4748    3.8987    0.0000 O   0  0  0  0  0  0  0  0  0 10  0  0
    2.7309    2.6102    0.0000 O   0  0  0  0  0  0  0  0  0 11  0  0
    2.9041   -2.3253    0.0000 H   0  0  0  0  0  0  0  0  0  0  0  0
    9.2946   -0.5060    0.0000 C   0  0  0  0  0  0  0  0  0  0  0  0
    7.9991   -1.2621    0.0000 C   0  0  0  0  0  0  0  0  0  0  0  0
    7.2552   -2.5647    0.0000 C   0  0  0  0  0  0  0  0  0  0  0  0
    5.7553   -2.5717    0.0000 C   0  0  0  0  0  0  0  0  0  0  0  0
    7.2430    0.0334    0.0000 O   0  0  0  0  0  0  0  0  0  0  0  0
    9.3017   -2.0060    0.0000 C   0  0  0  0  0  0  0  0  0  0  0  0
    5.7308    2.6244    0.0000 O   0  0  0  0  0  0  0  0  0  0  0  0
    4.9747    3.9198    0.0000 C   0  0  0  0  0  0  0  0  0  0  0  0
   -0.7130    1.2950    0.0000 H   0  0  0  0  0  0  0  0  0  0  0  0
   -4.0007   -1.3186    0.0000 C   0  0  0  0  0  0  0  0  0  0  0  0
   -3.2446   -2.6141    0.0000 O   0  0  0  0  0  0  0  0  0  0  0  0
   -1.7447   -2.6070    0.0000 C   0  0  0  0  0  0  0  0  0  0  0  0
   -1.0008   -1.3045    0.0000 C   0  0  0  0  0  0  0  0  0  0  0  0
    0.4992   -1.2974    0.0000 C   0  0  0  0  0  0  0  0  0  0  0  0
    1.2553   -2.5929    0.0000 C   0  0  0  0  0  0  0  0  0  0  0  0
    0.5114   -3.8955    0.0000 C   0  0  0  0  0  0  0  0  0  0  0  0
   -0.9886   -3.9025    0.0000 C   0  0  0  0  0  0  0  0  0  0  0  0
   -1.7324   -5.2051    0.0000 O   0  0  0  0  0  0  0  0  0  0  0  0
    1.2675   -5.1910    0.0000 O   0  0  0  0  0  0  0  0  0  0  0  0
    0.5236   -6.4935    0.0000 C   0  0  0  0  0  0  0  0  0  0  0  0
  1  2  1  0  0  0  0
  1  6  2  0  0  0  0
  2  3  2  0  0  0  0
  3  4  1  0  0  0  0
  4  5  2  0  0  0  0
  5  6  1  0  0  0  0
  5 11  1  0  0  0  0
  6  7  1  0  0  0  0
  7  8  2  0  0  0  0
  8  9  1  0  0  0  0
  9 10  2  0  0  0  0
  9 11  1  0  0  0  0
  1 12  1  0  0  0  0
 13 14  1  0  0  0  0
 14 15  1  0  0  0  0
 14 17  1  0  0  0  0
 14 18  1  0  0  0  0
 15 16  2  0  0  0  0
  2 16  1  0  0  0  0
  3 17  1  0  0  0  0
 19 20  1  0  0  0  0
  4 19  1  0  0  0  0
  8 21  1  0  0  0  0
 22 23  1  0  0  0  0
 23 24  1  0  0  0  0
 24 25  1  0  0  0  0
 24 29  2  0  0  0  0
 25 26  2  0  0  0  0
 26 27  1  0  0  0  0
 27 28  2  0  0  0  0
 28 29  1  0  0  0  0
 28 31  1  0  0  0  0
 29 30  1  0  0  0  0
 31 32  1  0  0  0  0
  7 26  1  0  0  0  0
M  END
> <score_KierFlex>
0.51654

$$$$
suggested molecule #417
 MOE2019            2D

 26 28  0  0  0  0  0  0  0  0999 V2000
    3.4992   -1.2833    0.0000 C   0  0  0  0  0  0  0  0  0  1  0  0
    4.9992   -1.2762    0.0000 C   0  0  0  0  0  0  0  0  0  2  0  0
    5.7430    0.0263    0.0000 C   0  0  0  0  0  0  0  0  0  3  0  0
    4.9869    1.3218    0.0000 C   0  0  0  0  0  0  0  0  0  4  0  0
    3.4870    1.3147    0.0000 C   0  0  0  0  0  0  0  0  0  5  0  0
    2.7431    0.0122    0.0000 C   0  0  0  0  0  0  0  0  0  6  0  0
    1.2431    0.0051    0.0000 C   0  0  0  0  0  0  0  0  0  7  0  0
    0.4870    1.3006    0.0000 C   0  0  0  0  0  0  0  0  0  8  0  0
    1.2309    2.6032    0.0000 C   0  0  0  0  0  0  0  0  0  9  0  0
    0.4748    3.8987    0.0000 O   0  0  0  0  0  0  0  0  0 10  0  0
    2.7309    2.6102    0.0000 O   0  0  0  0  0  0  0  0  0 11  0  0
    2.9041   -2.3253    0.0000 H   0  0  0  0  0  0  0  0  0  0  0  0
    9.3017   -2.0060    0.0000 C   0  0  0  0  0  0  0  0  0  0  0  0
    7.9991   -1.2621    0.0000 C   0  0  0  0  0  0  0  0  0  0  0  0
    7.2552   -2.5647    0.0000 C   0  0  0  0  0  0  0  0  0  0  0  0
    5.7553   -2.5717    0.0000 C   0  0  0  0  0  0  0  0  0  0  0  0
    7.2430    0.0334    0.0000 O   0  0  0  0  0  0  0  0  0  0  0  0
    9.2946   -0.5060    0.0000 C   0  0  0  0  0  0  0  0  0  0  0  0
    5.7308    2.6244    0.0000 O   0  0  0  0  0  0  0  0  0  0  0  0
    4.9747    3.9198    0.0000 C   0  0  0  0  0  0  0  0  0  0  0  0
   -0.7130    1.2950    0.0000 H   0  0  0  0  0  0  0  0  0  0  0  0
    0.4992   -1.2974    0.0000 C   0  0  0  0  0  0  0  0  0  0  0  0
   -1.0008   -1.3045    0.0000 C   0  0  0  0  0  0  0  0  0  0  0  0
   -1.7447   -2.6070    0.0000 C   0  0  0  0  0  0  0  0  0  0  0  0
   -0.9886   -3.9025    0.0000 O   0  0  0  0  0  0  0  0  0  0  0  0
   -3.2446   -2.6141    0.0000 O   0  0  0  0  0  0  0  0  0  0  0  0
  1  2  1  0  0  0  0
  1  6  2  0  0  0  0
  2  3  2  0  0  0  0
  3  4  1  0  0  0  0
  4  5  2  0  0  0  0
  5  6  1  0  0  0  0
  5 11  1  0  0  0  0
  6  7  1  0  0  0  0
  7  8  2  0  0  0  0
  8  9  1  0  0  0  0
  9 10  2  0  0  0  0
  9 11  1  0  0  0  0
  1 12  1  0  0  0  0
 13 14  1  0  0  0  0
 14 15  1  0  0  0  0
 14 17  1  0  0  0  0
 14 18  1  0  0  0  0
 15 16  2  0  0  0  0
  2 16  1  0  0  0  0
  3 17  1  0  0  0  0
 19 20  1  0  0  0  0
  4 19  1  0  0  0  0
  8 21  1  0  0  0  0
 22 23  1  0  0  0  0
 23 24  1  0  0  0  0
 24 25  2  0  0  0  0
 24 26  1  0  0  0  0
  7 22  1  0  0  0  0
M  END
> <score_Kier1>
0.517754

$$$$
suggested molecule #418
 MOE2019            2D

 26 28  0  0  0  0  0  0  0  0999 V2000
    3.4992   -1.2833    0.0000 C   0  0  0  0  0  0  0  0  0  1  0  0
    4.9992   -1.2762    0.0000 C   0  0  0  0  0  0  0  0  0  2  0  0
    5.7430    0.0263    0.0000 C   0  0  0  0  0  0  0  0  0  3  0  0
    4.9869    1.3218    0.0000 C   0  0  0  0  0  0  0  0  0  4  0  0
    3.4870    1.3147    0.0000 C   0  0  0  0  0  0  0  0  0  5  0  0
    2.7431    0.0122    0.0000 C   0  0  0  0  0  0  0  0  0  6  0  0
    1.2431    0.0051    0.0000 C   0  0  0  0  0  0  0  0  0  7  0  0
    0.4870    1.3006    0.0000 C   0  0  0  0  0  0  0  0  0  8  0  0
    1.2309    2.6032    0.0000 C   0  0  0  0  0  0  0  0  0  9  0  0
    0.4748    3.8987    0.0000 O   0  0  0  0  0  0  0  0  0 10  0  0
    2.7309    2.6102    0.0000 O   0  0  0  0  0  0  0  0  0 11  0  0
    2.9041   -2.3253    0.0000 H   0  0  0  0  0  0  0  0  0  0  0  0
    9.3017   -2.0060    0.0000 C   0  0  0  0  0  0  0  0  0  0  0  0
    7.9991   -1.2621    0.0000 C   0  0  0  0  0  0  0  0  0  0  0  0
    7.2552   -2.5647    0.0000 C   0  0  0  0  0  0  0  0  0  0  0  0
    5.7553   -2.5717    0.0000 C   0  0  0  0  0  0  0  0  0  0  0  0
    7.2430    0.0334    0.0000 O   0  0  0  0  0  0  0  0  0  0  0  0
    9.2946   -0.5060    0.0000 C   0  0  0  0  0  0  0  0  0  0  0  0
    5.7308    2.6244    0.0000 O   0  0  0  0  0  0  0  0  0  0  0  0
    4.9747    3.9198    0.0000 C   0  0  0  0  0  0  0  0  0  0  0  0
   -0.7130    1.2950    0.0000 H   0  0  0  0  0  0  0  0  0  0  0  0
    0.4992   -1.2974    0.0000 C   0  0  0  0  0  0  0  0  0  0  0  0
   -1.0008   -1.3045    0.0000 C   0  0  0  0  0  0  0  0  0  0  0  0
   -1.7447   -2.6070    0.0000 C   0  0  0  0  0  0  0  0  0  0  0  0
   -0.9886   -3.9025    0.0000 O   0  0  0  0  0  0  0  0  0  0  0  0
   -3.2446   -2.6141    0.0000 O   0  0  0  0  0  0  0  0  0  0  0  0
  1  2  1  0  0  0  0
  1  6  2  0  0  0  0
  2  3  2  0  0  0  0
  3  4  1  0  0  0  0
  4  5  2  0  0  0  0
  5  6  1  0  0  0  0
  5 11  1  0  0  0  0
  6  7  1  0  0  0  0
  7  8  2  0  0  0  0
  8  9  1  0  0  0  0
  9 10  2  0  0  0  0
  9 11  1  0  0  0  0
  1 12  1  0  0  0  0
 13 14  1  0  0  0  0
 14 15  1  0  0  0  0
 14 17  1  0  0  0  0
 14 18  1  0  0  0  0
 15 16  2  0  0  0  0
  2 16  1  0  0  0  0
  3 17  1  0  0  0  0
 19 20  1  0  0  0  0
  4 19  1  0  0  0  0
  8 21  1  0  0  0  0
 22 23  1  0  0  0  0
 23 24  1  0  0  0  0
 24 25  2  0  0  0  0
 24 26  1  0  0  0  0
  7 22  1  0  0  0  0
M  END
> <score_Kier2>
0.516453

$$$$
suggested molecule #419
 MOE2019            2D

 26 28  0  0  0  0  0  0  0  0999 V2000
    3.4992   -1.2833    0.0000 C   0  0  0  0  0  0  0  0  0  1  0  0
    4.9992   -1.2762    0.0000 C   0  0  0  0  0  0  0  0  0  2  0  0
    5.7430    0.0263    0.0000 C   0  0  0  0  0  0  0  0  0  3  0  0
    4.9869    1.3218    0.0000 C   0  0  0  0  0  0  0  0  0  4  0  0
    3.4870    1.3147    0.0000 C   0  0  0  0  0  0  0  0  0  5  0  0
    2.7431    0.0122    0.0000 C   0  0  0  0  0  0  0  0  0  6  0  0
    1.2431    0.0051    0.0000 C   0  0  0  0  0  0  0  0  0  7  0  0
    0.4870    1.3006    0.0000 C   0  0  0  0  0  0  0  0  0  8  0  0
    1.2309    2.6032    0.0000 C   0  0  0  0  0  0  0  0  0  9  0  0
    0.4748    3.8987    0.0000 O   0  0  0  0  0  0  0  0  0 10  0  0
    2.7309    2.6102    0.0000 O   0  0  0  0  0  0  0  0  0 11  0  0
    2.9041   -2.3253    0.0000 H   0  0  0  0  0  0  0  0  0  0  0  0
    9.3017   -2.0060    0.0000 C   0  0  0  0  0  0  0  0  0  0  0  0
    7.9991   -1.2621    0.0000 C   0  0  0  0  0  0  0  0  0  0  0  0
    7.2552   -2.5647    0.0000 C   0  0  0  0  0  0  0  0  0  0  0  0
    5.7553   -2.5717    0.0000 C   0  0  0  0  0  0  0  0  0  0  0  0
    7.2430    0.0334    0.0000 O   0  0  0  0  0  0  0  0  0  0  0  0
    9.2946   -0.5060    0.0000 C   0  0  0  0  0  0  0  0  0  0  0  0
    5.7308    2.6244    0.0000 O   0  0  0  0  0  0  0  0  0  0  0  0
    4.9747    3.9198    0.0000 C   0  0  0  0  0  0  0  0  0  0  0  0
   -0.7130    1.2950    0.0000 H   0  0  0  0  0  0  0  0  0  0  0  0
    0.4992   -1.2974    0.0000 C   0  0  0  0  0  0  0  0  0  0  0  0
   -1.0008   -1.3045    0.0000 C   0  0  0  0  0  0  0  0  0  0  0  0
   -1.7447   -2.6070    0.0000 C   0  0  0  0  0  0  0  0  0  0  0  0
   -0.9886   -3.9025    0.0000 O   0  0  0  0  0  0  0  0  0  0  0  0
   -3.2446   -2.6141    0.0000 O   0  0  0  0  0  0  0  0  0  0  0  0
  1  2  1  0  0  0  0
  1  6  2  0  0  0  0
  2  3  2  0  0  0  0
  3  4  1  0  0  0  0
  4  5  2  0  0  0  0
  5  6  1  0  0  0  0
  5 11  1  0  0  0  0
  6  7  1  0  0  0  0
  7  8  2  0  0  0  0
  8  9  1  0  0  0  0
  9 10  2  0  0  0  0
  9 11  1  0  0  0  0
  1 12  1  0  0  0  0
 13 14  1  0  0  0  0
 14 15  1  0  0  0  0
 14 17  1  0  0  0  0
 14 18  1  0  0  0  0
 15 16  2  0  0  0  0
  2 16  1  0  0  0  0
  3 17  1  0  0  0  0
 19 20  1  0  0  0  0
  4 19  1  0  0  0  0
  8 21  1  0  0  0  0
 22 23  1  0  0  0  0
 23 24  1  0  0  0  0
 24 25  2  0  0  0  0
 24 26  1  0  0  0  0
  7 22  1  0  0  0  0
M  END
> <score_Kier3>
0.511739

$$$$
suggested molecule #420
 MOE2019            2D

 26 28  0  0  0  0  0  0  0  0999 V2000
    3.4992   -1.2833    0.0000 C   0  0  0  0  0  0  0  0  0  1  0  0
    4.9992   -1.2762    0.0000 C   0  0  0  0  0  0  0  0  0  2  0  0
    5.7430    0.0263    0.0000 C   0  0  0  0  0  0  0  0  0  3  0  0
    4.9869    1.3218    0.0000 C   0  0  0  0  0  0  0  0  0  4  0  0
    3.4870    1.3147    0.0000 C   0  0  0  0  0  0  0  0  0  5  0  0
    2.7431    0.0122    0.0000 C   0  0  0  0  0  0  0  0  0  6  0  0
    1.2431    0.0051    0.0000 C   0  0  0  0  0  0  0  0  0  7  0  0
    0.4870    1.3006    0.0000 C   0  0  0  0  0  0  0  0  0  8  0  0
    1.2309    2.6032    0.0000 C   0  0  0  0  0  0  0  0  0  9  0  0
    0.4748    3.8987    0.0000 O   0  0  0  0  0  0  0  0  0 10  0  0
    2.7309    2.6102    0.0000 O   0  0  0  0  0  0  0  0  0 11  0  0
    2.9041   -2.3253    0.0000 H   0  0  0  0  0  0  0  0  0  0  0  0
    9.3017   -2.0060    0.0000 C   0  0  0  0  0  0  0  0  0  0  0  0
    7.9991   -1.2621    0.0000 C   0  0  0  0  0  0  0  0  0  0  0  0
    7.2552   -2.5647    0.0000 C   0  0  0  0  0  0  0  0  0  0  0  0
    5.7553   -2.5717    0.0000 C   0  0  0  0  0  0  0  0  0  0  0  0
    7.2430    0.0334    0.0000 O   0  0  0  0  0  0  0  0  0  0  0  0
    9.2946   -0.5060    0.0000 C   0  0  0  0  0  0  0  0  0  0  0  0
    5.7308    2.6244    0.0000 O   0  0  0  0  0  0  0  0  0  0  0  0
    4.9747    3.9198    0.0000 C   0  0  0  0  0  0  0  0  0  0  0  0
   -0.7130    1.2950    0.0000 H   0  0  0  0  0  0  0  0  0  0  0  0
    0.4992   -1.2974    0.0000 C   0  0  0  0  0  0  0  0  0  0  0  0
   -1.0008   -1.3045    0.0000 C   0  0  0  0  0  0  0  0  0  0  0  0
   -1.7447   -2.6070    0.0000 C   0  0  0  0  0  0  0  0  0  0  0  0
   -0.9886   -3.9025    0.0000 O   0  0  0  0  0  0  0  0  0  0  0  0
   -3.2446   -2.6141    0.0000 O   0  0  0  0  0  0  0  0  0  0  0  0
  1  2  1  0  0  0  0
  1  6  2  0  0  0  0
  2  3  2  0  0  0  0
  3  4  1  0  0  0  0
  4  5  2  0  0  0  0
  5  6  1  0  0  0  0
  5 11  1  0  0  0  0
  6  7  1  0  0  0  0
  7  8  2  0  0  0  0
  8  9  1  0  0  0  0
  9 10  2  0  0  0  0
  9 11  1  0  0  0  0
  1 12  1  0  0  0  0
 13 14  1  0  0  0  0
 14 15  1  0  0  0  0
 14 17  1  0  0  0  0
 14 18  1  0  0  0  0
 15 16  2  0  0  0  0
  2 16  1  0  0  0  0
  3 17  1  0  0  0  0
 19 20  1  0  0  0  0
  4 19  1  0  0  0  0
  8 21  1  0  0  0  0
 22 23  1  0  0  0  0
 23 24  1  0  0  0  0
 24 25  2  0  0  0  0
 24 26  1  0  0  0  0
  7 22  1  0  0  0  0
M  END
> <score_KierA1>
0.517801

$$$$
suggested molecule #421
 MOE2019            2D

 26 28  0  0  0  0  0  0  0  0999 V2000
    3.4992   -1.2833    0.0000 C   0  0  0  0  0  0  0  0  0  1  0  0
    4.9992   -1.2762    0.0000 C   0  0  0  0  0  0  0  0  0  2  0  0
    5.7430    0.0263    0.0000 C   0  0  0  0  0  0  0  0  0  3  0  0
    4.9869    1.3218    0.0000 C   0  0  0  0  0  0  0  0  0  4  0  0
    3.4870    1.3147    0.0000 C   0  0  0  0  0  0  0  0  0  5  0  0
    2.7431    0.0122    0.0000 C   0  0  0  0  0  0  0  0  0  6  0  0
    1.2431    0.0051    0.0000 C   0  0  0  0  0  0  0  0  0  7  0  0
    0.4870    1.3006    0.0000 C   0  0  0  0  0  0  0  0  0  8  0  0
    1.2309    2.6032    0.0000 C   0  0  0  0  0  0  0  0  0  9  0  0
    0.4748    3.8987    0.0000 O   0  0  0  0  0  0  0  0  0 10  0  0
    2.7309    2.6102    0.0000 O   0  0  0  0  0  0  0  0  0 11  0  0
    2.9041   -2.3253    0.0000 H   0  0  0  0  0  0  0  0  0  0  0  0
    9.3017   -2.0060    0.0000 C   0  0  0  0  0  0  0  0  0  0  0  0
    7.9991   -1.2621    0.0000 C   0  0  0  0  0  0  0  0  0  0  0  0
    7.2552   -2.5647    0.0000 C   0  0  0  0  0  0  0  0  0  0  0  0
    5.7553   -2.5717    0.0000 C   0  0  0  0  0  0  0  0  0  0  0  0
    7.2430    0.0334    0.0000 O   0  0  0  0  0  0  0  0  0  0  0  0
    9.2946   -0.5060    0.0000 C   0  0  0  0  0  0  0  0  0  0  0  0
    5.7308    2.6244    0.0000 O   0  0  0  0  0  0  0  0  0  0  0  0
    4.9747    3.9198    0.0000 C   0  0  0  0  0  0  0  0  0  0  0  0
   -0.7130    1.2950    0.0000 H   0  0  0  0  0  0  0  0  0  0  0  0
    0.4992   -1.2974    0.0000 C   0  0  0  0  0  0  0  0  0  0  0  0
   -1.0008   -1.3045    0.0000 C   0  0  0  0  0  0  0  0  0  0  0  0
   -1.7447   -2.6070    0.0000 C   0  0  0  0  0  0  0  0  0  0  0  0
   -0.9886   -3.9025    0.0000 O   0  0  0  0  0  0  0  0  0  0  0  0
   -3.2446   -2.6141    0.0000 O   0  0  0  0  0  0  0  0  0  0  0  0
  1  2  1  0  0  0  0
  1  6  2  0  0  0  0
  2  3  2  0  0  0  0
  3  4  1  0  0  0  0
  4  5  2  0  0  0  0
  5  6  1  0  0  0  0
  5 11  1  0  0  0  0
  6  7  1  0  0  0  0
  7  8  2  0  0  0  0
  8  9  1  0  0  0  0
  9 10  2  0  0  0  0
  9 11  1  0  0  0  0
  1 12  1  0  0  0  0
 13 14  1  0  0  0  0
 14 15  1  0  0  0  0
 14 17  1  0  0  0  0
 14 18  1  0  0  0  0
 15 16  2  0  0  0  0
  2 16  1  0  0  0  0
  3 17  1  0  0  0  0
 19 20  1  0  0  0  0
  4 19  1  0  0  0  0
  8 21  1  0  0  0  0
 22 23  1  0  0  0  0
 23 24  1  0  0  0  0
 24 25  2  0  0  0  0
 24 26  1  0  0  0  0
  7 22  1  0  0  0  0
M  END
> <score_KierA2>
0.51685

$$$$
suggested molecule #422
 MOE2019            2D

 26 28  0  0  0  0  0  0  0  0999 V2000
    3.4992   -1.2833    0.0000 C   0  0  0  0  0  0  0  0  0  1  0  0
    4.9992   -1.2762    0.0000 C   0  0  0  0  0  0  0  0  0  2  0  0
    5.7430    0.0263    0.0000 C   0  0  0  0  0  0  0  0  0  3  0  0
    4.9869    1.3218    0.0000 C   0  0  0  0  0  0  0  0  0  4  0  0
    3.4870    1.3147    0.0000 C   0  0  0  0  0  0  0  0  0  5  0  0
    2.7431    0.0122    0.0000 C   0  0  0  0  0  0  0  0  0  6  0  0
    1.2431    0.0051    0.0000 C   0  0  0  0  0  0  0  0  0  7  0  0
    0.4870    1.3006    0.0000 C   0  0  0  0  0  0  0  0  0  8  0  0
    1.2309    2.6032    0.0000 C   0  0  0  0  0  0  0  0  0  9  0  0
    0.4748    3.8987    0.0000 O   0  0  0  0  0  0  0  0  0 10  0  0
    2.7309    2.6102    0.0000 O   0  0  0  0  0  0  0  0  0 11  0  0
    2.9041   -2.3253    0.0000 H   0  0  0  0  0  0  0  0  0  0  0  0
    9.3017   -2.0060    0.0000 C   0  0  0  0  0  0  0  0  0  0  0  0
    7.9991   -1.2621    0.0000 C   0  0  0  0  0  0  0  0  0  0  0  0
    7.2552   -2.5647    0.0000 C   0  0  0  0  0  0  0  0  0  0  0  0
    5.7553   -2.5717    0.0000 C   0  0  0  0  0  0  0  0  0  0  0  0
    7.2430    0.0334    0.0000 O   0  0  0  0  0  0  0  0  0  0  0  0
    9.2946   -0.5060    0.0000 C   0  0  0  0  0  0  0  0  0  0  0  0
    5.7308    2.6244    0.0000 O   0  0  0  0  0  0  0  0  0  0  0  0
    4.9747    3.9198    0.0000 C   0  0  0  0  0  0  0  0  0  0  0  0
   -0.7130    1.2950    0.0000 H   0  0  0  0  0  0  0  0  0  0  0  0
    0.4992   -1.2974    0.0000 C   0  0  0  0  0  0  0  0  0  0  0  0
   -1.0008   -1.3045    0.0000 C   0  0  0  0  0  0  0  0  0  0  0  0
   -1.7447   -2.6070    0.0000 C   0  0  0  0  0  0  0  0  0  0  0  0
   -0.9886   -3.9025    0.0000 O   0  0  0  0  0  0  0  0  0  0  0  0
   -3.2446   -2.6141    0.0000 O   0  0  0  0  0  0  0  0  0  0  0  0
  1  2  1  0  0  0  0
  1  6  2  0  0  0  0
  2  3  2  0  0  0  0
  3  4  1  0  0  0  0
  4  5  2  0  0  0  0
  5  6  1  0  0  0  0
  5 11  1  0  0  0  0
  6  7  1  0  0  0  0
  7  8  2  0  0  0  0
  8  9  1  0  0  0  0
  9 10  2  0  0  0  0
  9 11  1  0  0  0  0
  1 12  1  0  0  0  0
 13 14  1  0  0  0  0
 14 15  1  0  0  0  0
 14 17  1  0  0  0  0
 14 18  1  0  0  0  0
 15 16  2  0  0  0  0
  2 16  1  0  0  0  0
  3 17  1  0  0  0  0
 19 20  1  0  0  0  0
  4 19  1  0  0  0  0
  8 21  1  0  0  0  0
 22 23  1  0  0  0  0
 23 24  1  0  0  0  0
 24 25  2  0  0  0  0
 24 26  1  0  0  0  0
  7 22  1  0  0  0  0
M  END
> <score_KierA3>
0.512456

$$$$
suggested molecule #423
 MOE2019            2D

 26 28  0  0  0  0  0  0  0  0999 V2000
    3.4992   -1.2833    0.0000 C   0  0  0  0  0  0  0  0  0  1  0  0
    4.9992   -1.2762    0.0000 C   0  0  0  0  0  0  0  0  0  2  0  0
    5.7430    0.0263    0.0000 C   0  0  0  0  0  0  0  0  0  3  0  0
    4.9869    1.3218    0.0000 C   0  0  0  0  0  0  0  0  0  4  0  0
    3.4870    1.3147    0.0000 C   0  0  0  0  0  0  0  0  0  5  0  0
    2.7431    0.0122    0.0000 C   0  0  0  0  0  0  0  0  0  6  0  0
    1.2431    0.0051    0.0000 C   0  0  0  0  0  0  0  0  0  7  0  0
    0.4870    1.3006    0.0000 C   0  0  0  0  0  0  0  0  0  8  0  0
    1.2309    2.6032    0.0000 C   0  0  0  0  0  0  0  0  0  9  0  0
    0.4748    3.8987    0.0000 O   0  0  0  0  0  0  0  0  0 10  0  0
    2.7309    2.6102    0.0000 O   0  0  0  0  0  0  0  0  0 11  0  0
    2.9041   -2.3253    0.0000 H   0  0  0  0  0  0  0  0  0  0  0  0
    9.3017   -2.0060    0.0000 C   0  0  0  0  0  0  0  0  0  0  0  0
    7.9991   -1.2621    0.0000 C   0  0  0  0  0  0  0  0  0  0  0  0
    7.2552   -2.5647    0.0000 C   0  0  0  0  0  0  0  0  0  0  0  0
    5.7553   -2.5717    0.0000 C   0  0  0  0  0  0  0  0  0  0  0  0
    7.2430    0.0334    0.0000 O   0  0  0  0  0  0  0  0  0  0  0  0
    9.2946   -0.5060    0.0000 C   0  0  0  0  0  0  0  0  0  0  0  0
    5.7308    2.6244    0.0000 O   0  0  0  0  0  0  0  0  0  0  0  0
    4.9747    3.9198    0.0000 C   0  0  0  0  0  0  0  0  0  0  0  0
   -0.7130    1.2950    0.0000 H   0  0  0  0  0  0  0  0  0  0  0  0
    0.4992   -1.2974    0.0000 C   0  0  0  0  0  0  0  0  0  0  0  0
   -1.0008   -1.3045    0.0000 C   0  0  0  0  0  0  0  0  0  0  0  0
   -1.7447   -2.6070    0.0000 C   0  0  0  0  0  0  0  0  0  0  0  0
   -0.9886   -3.9025    0.0000 O   0  0  0  0  0  0  0  0  0  0  0  0
   -3.2446   -2.6141    0.0000 O   0  0  0  0  0  0  0  0  0  0  0  0
  1  2  1  0  0  0  0
  1  6  2  0  0  0  0
  2  3  2  0  0  0  0
  3  4  1  0  0  0  0
  4  5  2  0  0  0  0
  5  6  1  0  0  0  0
  5 11  1  0  0  0  0
  6  7  1  0  0  0  0
  7  8  2  0  0  0  0
  8  9  1  0  0  0  0
  9 10  2  0  0  0  0
  9 11  1  0  0  0  0
  1 12  1  0  0  0  0
 13 14  1  0  0  0  0
 14 15  1  0  0  0  0
 14 17  1  0  0  0  0
 14 18  1  0  0  0  0
 15 16  2  0  0  0  0
  2 16  1  0  0  0  0
  3 17  1  0  0  0  0
 19 20  1  0  0  0  0
  4 19  1  0  0  0  0
  8 21  1  0  0  0  0
 22 23  1  0  0  0  0
 23 24  1  0  0  0  0
 24 25  2  0  0  0  0
 24 26  1  0  0  0  0
  7 22  1  0  0  0  0
M  END
> <score_KierFlex>
0.5166

$$$$
suggested molecule #424
 MOE2019            2D

 31 34  0  0  0  0  0  0  0  0999 V2000
    3.4992   -1.2833    0.0000 C   0  0  0  0  0  0  0  0  0  1  0  0
    4.9992   -1.2762    0.0000 C   0  0  0  0  0  0  0  0  0  2  0  0
    5.7430    0.0263    0.0000 C   0  0  0  0  0  0  0  0  0  3  0  0
    4.9869    1.3218    0.0000 C   0  0  0  0  0  0  0  0  0  4  0  0
    3.4870    1.3147    0.0000 C   0  0  0  0  0  0  0  0  0  5  0  0
    2.7431    0.0122    0.0000 C   0  0  0  0  0  0  0  0  0  6  0  0
    1.2431    0.0051    0.0000 C   0  0  0  0  0  0  0  0  0  7  0  0
    0.4870    1.3006    0.0000 C   0  0  0  0  0  0  0  0  0  8  0  0
    1.2309    2.6032    0.0000 C   0  0  0  0  0  0  0  0  0  9  0  0
    0.4748    3.8987    0.0000 O   0  0  0  0  0  0  0  0  0 10  0  0
    2.7309    2.6102    0.0000 O   0  0  0  0  0  0  0  0  0 11  0  0
    2.9041   -2.3253    0.0000 H   0  0  0  0  0  0  0  0  0  0  0  0
    9.3017   -2.0060    0.0000 C   0  0  0  0  0  0  0  0  0  0  0  0
    7.9991   -1.2621    0.0000 C   0  0  0  0  0  0  0  0  0  0  0  0
    7.2552   -2.5647    0.0000 C   0  0  0  0  0  0  0  0  0  0  0  0
    5.7553   -2.5717    0.0000 C   0  0  0  0  0  0  0  0  0  0  0  0
    7.2430    0.0334    0.0000 O   0  0  0  0  0  0  0  0  0  0  0  0
    9.2946   -0.5060    0.0000 C   0  0  0  0  0  0  0  0  0  0  0  0
    5.7308    2.6244    0.0000 O   0  0  0  0  0  0  0  0  0  0  0  0
    4.9747    3.9198    0.0000 C   0  0  0  0  0  0  0  0  0  0  0  0
   -0.7130    1.2950    0.0000 H   0  0  0  0  0  0  0  0  0  0  0  0
    0.4992   -1.2974    0.0000 C   0  0  0  0  0  0  0  0  0  0  0  0
    1.2553   -2.5929    0.0000 C   0  0  0  0  0  0  0  0  0  0  0  0
    0.5114   -3.8955    0.0000 C   0  0  0  0  0  0  0  0  0  0  0  0
   -0.9886   -3.9025    0.0000 C   0  0  0  0  0  0  0  0  0  0  0  0
   -1.7447   -2.6070    0.0000 C   0  0  0  0  0  0  0  0  0  0  0  0
   -1.0008   -1.3045    0.0000 C   0  0  0  0  0  0  0  0  0  0  0  0
   -3.2446   -2.6141    0.0000 O   0  0  0  0  0  0  0  0  0  0  0  0
   -1.7324   -5.2051    0.0000 O   0  0  0  0  0  0  0  0  0  0  0  0
   -3.2324   -5.2121    0.0000 C   0  0  0  0  0  0  0  0  0  0  0  0
    1.2675   -5.1910    0.0000 O   0  0  0  0  0  0  0  0  0  0  0  0
  1  2  1  0  0  0  0
  1  6  2  0  0  0  0
  2  3  2  0  0  0  0
  3  4  1  0  0  0  0
  4  5  2  0  0  0  0
  5  6  1  0  0  0  0
  5 11  1  0  0  0  0
  6  7  1  0  0  0  0
  7  8  2  0  0  0  0
  8  9  1  0  0  0  0
  9 10  2  0  0  0  0
  9 11  1  0  0  0  0
  1 12  1  0  0  0  0
 13 14  1  0  0  0  0
 14 15  1  0  0  0  0
 14 17  1  0  0  0  0
 14 18  1  0  0  0  0
 15 16  2  0  0  0  0
  2 16  1  0  0  0  0
  3 17  1  0  0  0  0
 19 20  1  0  0  0  0
  4 19  1  0  0  0  0
  8 21  1  0  0  0  0
 22 23  1  0  0  0  0
 22 27  2  0  0  0  0
 23 24  2  0  0  0  0
 24 25  1  0  0  0  0
 24 31  1  0  0  0  0
 25 26  2  0  0  0  0
 25 29  1  0  0  0  0
 26 27  1  0  0  0  0
 26 28  1  0  0  0  0
 29 30  1  0  0  0  0
  7 22  1  0  0  0  0
M  END
> <score_Kier1>
0.517694

$$$$
suggested molecule #425
 MOE2019            2D

 31 34  0  0  0  0  0  0  0  0999 V2000
    3.4992   -1.2833    0.0000 C   0  0  0  0  0  0  0  0  0  1  0  0
    4.9992   -1.2762    0.0000 C   0  0  0  0  0  0  0  0  0  2  0  0
    5.7430    0.0263    0.0000 C   0  0  0  0  0  0  0  0  0  3  0  0
    4.9869    1.3218    0.0000 C   0  0  0  0  0  0  0  0  0  4  0  0
    3.4870    1.3147    0.0000 C   0  0  0  0  0  0  0  0  0  5  0  0
    2.7431    0.0122    0.0000 C   0  0  0  0  0  0  0  0  0  6  0  0
    1.2431    0.0051    0.0000 C   0  0  0  0  0  0  0  0  0  7  0  0
    0.4870    1.3006    0.0000 C   0  0  0  0  0  0  0  0  0  8  0  0
    1.2309    2.6032    0.0000 C   0  0  0  0  0  0  0  0  0  9  0  0
    0.4748    3.8987    0.0000 O   0  0  0  0  0  0  0  0  0 10  0  0
    2.7309    2.6102    0.0000 O   0  0  0  0  0  0  0  0  0 11  0  0
    2.9041   -2.3253    0.0000 H   0  0  0  0  0  0  0  0  0  0  0  0
    9.3017   -2.0060    0.0000 C   0  0  0  0  0  0  0  0  0  0  0  0
    7.9991   -1.2621    0.0000 C   0  0  0  0  0  0  0  0  0  0  0  0
    7.2552   -2.5647    0.0000 C   0  0  0  0  0  0  0  0  0  0  0  0
    5.7553   -2.5717    0.0000 C   0  0  0  0  0  0  0  0  0  0  0  0
    7.2430    0.0334    0.0000 O   0  0  0  0  0  0  0  0  0  0  0  0
    9.2946   -0.5060    0.0000 C   0  0  0  0  0  0  0  0  0  0  0  0
    5.7308    2.6244    0.0000 O   0  0  0  0  0  0  0  0  0  0  0  0
    4.9747    3.9198    0.0000 C   0  0  0  0  0  0  0  0  0  0  0  0
   -0.7130    1.2950    0.0000 H   0  0  0  0  0  0  0  0  0  0  0  0
    0.4992   -1.2974    0.0000 C   0  0  0  0  0  0  0  0  0  0  0  0
    1.2553   -2.5929    0.0000 C   0  0  0  0  0  0  0  0  0  0  0  0
    0.5114   -3.8955    0.0000 C   0  0  0  0  0  0  0  0  0  0  0  0
   -0.9886   -3.9025    0.0000 C   0  0  0  0  0  0  0  0  0  0  0  0
   -1.7447   -2.6070    0.0000 C   0  0  0  0  0  0  0  0  0  0  0  0
   -1.0008   -1.3045    0.0000 C   0  0  0  0  0  0  0  0  0  0  0  0
   -3.2446   -2.6141    0.0000 O   0  0  0  0  0  0  0  0  0  0  0  0
   -1.7324   -5.2051    0.0000 O   0  0  0  0  0  0  0  0  0  0  0  0
   -3.2324   -5.2121    0.0000 C   0  0  0  0  0  0  0  0  0  0  0  0
    1.2675   -5.1910    0.0000 O   0  0  0  0  0  0  0  0  0  0  0  0
  1  2  1  0  0  0  0
  1  6  2  0  0  0  0
  2  3  2  0  0  0  0
  3  4  1  0  0  0  0
  4  5  2  0  0  0  0
  5  6  1  0  0  0  0
  5 11  1  0  0  0  0
  6  7  1  0  0  0  0
  7  8  2  0  0  0  0
  8  9  1  0  0  0  0
  9 10  2  0  0  0  0
  9 11  1  0  0  0  0
  1 12  1  0  0  0  0
 13 14  1  0  0  0  0
 14 15  1  0  0  0  0
 14 17  1  0  0  0  0
 14 18  1  0  0  0  0
 15 16  2  0  0  0  0
  2 16  1  0  0  0  0
  3 17  1  0  0  0  0
 19 20  1  0  0  0  0
  4 19  1  0  0  0  0
  8 21  1  0  0  0  0
 22 23  1  0  0  0  0
 22 27  2  0  0  0  0
 23 24  2  0  0  0  0
 24 25  1  0  0  0  0
 24 31  1  0  0  0  0
 25 26  2  0  0  0  0
 25 29  1  0  0  0  0
 26 27  1  0  0  0  0
 26 28  1  0  0  0  0
 29 30  1  0  0  0  0
  7 22  1  0  0  0  0
M  END
> <score_Kier3>
0.511713

$$$$
suggested molecule #426
 MOE2019            2D

 31 34  0  0  0  0  0  0  0  0999 V2000
    3.4992   -1.2833    0.0000 C   0  0  0  0  0  0  0  0  0  1  0  0
    4.9992   -1.2762    0.0000 C   0  0  0  0  0  0  0  0  0  2  0  0
    5.7430    0.0263    0.0000 C   0  0  0  0  0  0  0  0  0  3  0  0
    4.9869    1.3218    0.0000 C   0  0  0  0  0  0  0  0  0  4  0  0
    3.4870    1.3147    0.0000 C   0  0  0  0  0  0  0  0  0  5  0  0
    2.7431    0.0122    0.0000 C   0  0  0  0  0  0  0  0  0  6  0  0
    1.2431    0.0051    0.0000 C   0  0  0  0  0  0  0  0  0  7  0  0
    0.4870    1.3006    0.0000 C   0  0  0  0  0  0  0  0  0  8  0  0
    1.2309    2.6032    0.0000 C   0  0  0  0  0  0  0  0  0  9  0  0
    0.4748    3.8987    0.0000 O   0  0  0  0  0  0  0  0  0 10  0  0
    2.7309    2.6102    0.0000 O   0  0  0  0  0  0  0  0  0 11  0  0
    2.9041   -2.3253    0.0000 H   0  0  0  0  0  0  0  0  0  0  0  0
    9.3017   -2.0060    0.0000 C   0  0  0  0  0  0  0  0  0  0  0  0
    7.9991   -1.2621    0.0000 C   0  0  0  0  0  0  0  0  0  0  0  0
    7.2552   -2.5647    0.0000 C   0  0  0  0  0  0  0  0  0  0  0  0
    5.7553   -2.5717    0.0000 C   0  0  0  0  0  0  0  0  0  0  0  0
    7.2430    0.0334    0.0000 O   0  0  0  0  0  0  0  0  0  0  0  0
    9.2946   -0.5060    0.0000 C   0  0  0  0  0  0  0  0  0  0  0  0
    5.7308    2.6244    0.0000 O   0  0  0  0  0  0  0  0  0  0  0  0
    4.9747    3.9198    0.0000 C   0  0  0  0  0  0  0  0  0  0  0  0
   -0.7130    1.2950    0.0000 H   0  0  0  0  0  0  0  0  0  0  0  0
    0.4992   -1.2974    0.0000 C   0  0  0  0  0  0  0  0  0  0  0  0
    1.2553   -2.5929    0.0000 C   0  0  0  0  0  0  0  0  0  0  0  0
    0.5114   -3.8955    0.0000 C   0  0  0  0  0  0  0  0  0  0  0  0
   -0.9886   -3.9025    0.0000 C   0  0  0  0  0  0  0  0  0  0  0  0
   -1.7447   -2.6070    0.0000 C   0  0  0  0  0  0  0  0  0  0  0  0
   -1.0008   -1.3045    0.0000 C   0  0  0  0  0  0  0  0  0  0  0  0
   -3.2446   -2.6141    0.0000 O   0  0  0  0  0  0  0  0  0  0  0  0
   -1.7324   -5.2051    0.0000 O   0  0  0  0  0  0  0  0  0  0  0  0
   -3.2324   -5.2121    0.0000 C   0  0  0  0  0  0  0  0  0  0  0  0
    1.2675   -5.1910    0.0000 O   0  0  0  0  0  0  0  0  0  0  0  0
  1  2  1  0  0  0  0
  1  6  2  0  0  0  0
  2  3  2  0  0  0  0
  3  4  1  0  0  0  0
  4  5  2  0  0  0  0
  5  6  1  0  0  0  0
  5 11  1  0  0  0  0
  6  7  1  0  0  0  0
  7  8  2  0  0  0  0
  8  9  1  0  0  0  0
  9 10  2  0  0  0  0
  9 11  1  0  0  0  0
  1 12  1  0  0  0  0
 13 14  1  0  0  0  0
 14 15  1  0  0  0  0
 14 17  1  0  0  0  0
 14 18  1  0  0  0  0
 15 16  2  0  0  0  0
  2 16  1  0  0  0  0
  3 17  1  0  0  0  0
 19 20  1  0  0  0  0
  4 19  1  0  0  0  0
  8 21  1  0  0  0  0
 22 23  1  0  0  0  0
 22 27  2  0  0  0  0
 23 24  2  0  0  0  0
 24 25  1  0  0  0  0
 24 31  1  0  0  0  0
 25 26  2  0  0  0  0
 25 29  1  0  0  0  0
 26 27  1  0  0  0  0
 26 28  1  0  0  0  0
 29 30  1  0  0  0  0
  7 22  1  0  0  0  0
M  END
> <score_KierA1>
0.517735

$$$$
suggested molecule #427
 MOE2019            2D

 31 34  0  0  0  0  0  0  0  0999 V2000
    3.4992   -1.2833    0.0000 C   0  0  0  0  0  0  0  0  0  1  0  0
    4.9992   -1.2762    0.0000 C   0  0  0  0  0  0  0  0  0  2  0  0
    5.7430    0.0263    0.0000 C   0  0  0  0  0  0  0  0  0  3  0  0
    4.9869    1.3218    0.0000 C   0  0  0  0  0  0  0  0  0  4  0  0
    3.4870    1.3147    0.0000 C   0  0  0  0  0  0  0  0  0  5  0  0
    2.7431    0.0122    0.0000 C   0  0  0  0  0  0  0  0  0  6  0  0
    1.2431    0.0051    0.0000 C   0  0  0  0  0  0  0  0  0  7  0  0
    0.4870    1.3006    0.0000 C   0  0  0  0  0  0  0  0  0  8  0  0
    1.2309    2.6032    0.0000 C   0  0  0  0  0  0  0  0  0  9  0  0
    0.4748    3.8987    0.0000 O   0  0  0  0  0  0  0  0  0 10  0  0
    2.7309    2.6102    0.0000 O   0  0  0  0  0  0  0  0  0 11  0  0
    2.9041   -2.3253    0.0000 H   0  0  0  0  0  0  0  0  0  0  0  0
    9.3017   -2.0060    0.0000 C   0  0  0  0  0  0  0  0  0  0  0  0
    7.9991   -1.2621    0.0000 C   0  0  0  0  0  0  0  0  0  0  0  0
    7.2552   -2.5647    0.0000 C   0  0  0  0  0  0  0  0  0  0  0  0
    5.7553   -2.5717    0.0000 C   0  0  0  0  0  0  0  0  0  0  0  0
    7.2430    0.0334    0.0000 O   0  0  0  0  0  0  0  0  0  0  0  0
    9.2946   -0.5060    0.0000 C   0  0  0  0  0  0  0  0  0  0  0  0
    5.7308    2.6244    0.0000 O   0  0  0  0  0  0  0  0  0  0  0  0
    4.9747    3.9198    0.0000 C   0  0  0  0  0  0  0  0  0  0  0  0
   -0.7130    1.2950    0.0000 H   0  0  0  0  0  0  0  0  0  0  0  0
    0.4992   -1.2974    0.0000 C   0  0  0  0  0  0  0  0  0  0  0  0
    1.2553   -2.5929    0.0000 C   0  0  0  0  0  0  0  0  0  0  0  0
    0.5114   -3.8955    0.0000 C   0  0  0  0  0  0  0  0  0  0  0  0
   -0.9886   -3.9025    0.0000 C   0  0  0  0  0  0  0  0  0  0  0  0
   -1.7447   -2.6070    0.0000 C   0  0  0  0  0  0  0  0  0  0  0  0
   -1.0008   -1.3045    0.0000 C   0  0  0  0  0  0  0  0  0  0  0  0
   -3.2446   -2.6141    0.0000 O   0  0  0  0  0  0  0  0  0  0  0  0
   -1.7324   -5.2051    0.0000 O   0  0  0  0  0  0  0  0  0  0  0  0
   -3.2324   -5.2121    0.0000 C   0  0  0  0  0  0  0  0  0  0  0  0
    1.2675   -5.1910    0.0000 O   0  0  0  0  0  0  0  0  0  0  0  0
  1  2  1  0  0  0  0
  1  6  2  0  0  0  0
  2  3  2  0  0  0  0
  3  4  1  0  0  0  0
  4  5  2  0  0  0  0
  5  6  1  0  0  0  0
  5 11  1  0  0  0  0
  6  7  1  0  0  0  0
  7  8  2  0  0  0  0
  8  9  1  0  0  0  0
  9 10  2  0  0  0  0
  9 11  1  0  0  0  0
  1 12  1  0  0  0  0
 13 14  1  0  0  0  0
 14 15  1  0  0  0  0
 14 17  1  0  0  0  0
 14 18  1  0  0  0  0
 15 16  2  0  0  0  0
  2 16  1  0  0  0  0
  3 17  1  0  0  0  0
 19 20  1  0  0  0  0
  4 19  1  0  0  0  0
  8 21  1  0  0  0  0
 22 23  1  0  0  0  0
 22 27  2  0  0  0  0
 23 24  2  0  0  0  0
 24 25  1  0  0  0  0
 24 31  1  0  0  0  0
 25 26  2  0  0  0  0
 25 29  1  0  0  0  0
 26 27  1  0  0  0  0
 26 28  1  0  0  0  0
 29 30  1  0  0  0  0
  7 22  1  0  0  0  0
M  END
> <score_KierA2>
0.516802

$$$$
suggested molecule #428
 MOE2019            2D

 31 34  0  0  0  0  0  0  0  0999 V2000
    3.4992   -1.2833    0.0000 C   0  0  0  0  0  0  0  0  0  1  0  0
    4.9992   -1.2762    0.0000 C   0  0  0  0  0  0  0  0  0  2  0  0
    5.7430    0.0263    0.0000 C   0  0  0  0  0  0  0  0  0  3  0  0
    4.9869    1.3218    0.0000 C   0  0  0  0  0  0  0  0  0  4  0  0
    3.4870    1.3147    0.0000 C   0  0  0  0  0  0  0  0  0  5  0  0
    2.7431    0.0122    0.0000 C   0  0  0  0  0  0  0  0  0  6  0  0
    1.2431    0.0051    0.0000 C   0  0  0  0  0  0  0  0  0  7  0  0
    0.4870    1.3006    0.0000 C   0  0  0  0  0  0  0  0  0  8  0  0
    1.2309    2.6032    0.0000 C   0  0  0  0  0  0  0  0  0  9  0  0
    0.4748    3.8987    0.0000 O   0  0  0  0  0  0  0  0  0 10  0  0
    2.7309    2.6102    0.0000 O   0  0  0  0  0  0  0  0  0 11  0  0
    2.9041   -2.3253    0.0000 H   0  0  0  0  0  0  0  0  0  0  0  0
    9.3017   -2.0060    0.0000 C   0  0  0  0  0  0  0  0  0  0  0  0
    7.9991   -1.2621    0.0000 C   0  0  0  0  0  0  0  0  0  0  0  0
    7.2552   -2.5647    0.0000 C   0  0  0  0  0  0  0  0  0  0  0  0
    5.7553   -2.5717    0.0000 C   0  0  0  0  0  0  0  0  0  0  0  0
    7.2430    0.0334    0.0000 O   0  0  0  0  0  0  0  0  0  0  0  0
    9.2946   -0.5060    0.0000 C   0  0  0  0  0  0  0  0  0  0  0  0
    5.7308    2.6244    0.0000 O   0  0  0  0  0  0  0  0  0  0  0  0
    4.9747    3.9198    0.0000 C   0  0  0  0  0  0  0  0  0  0  0  0
   -0.7130    1.2950    0.0000 H   0  0  0  0  0  0  0  0  0  0  0  0
    0.4992   -1.2974    0.0000 C   0  0  0  0  0  0  0  0  0  0  0  0
    1.2553   -2.5929    0.0000 C   0  0  0  0  0  0  0  0  0  0  0  0
    0.5114   -3.8955    0.0000 C   0  0  0  0  0  0  0  0  0  0  0  0
   -0.9886   -3.9025    0.0000 C   0  0  0  0  0  0  0  0  0  0  0  0
   -1.7447   -2.6070    0.0000 C   0  0  0  0  0  0  0  0  0  0  0  0
   -1.0008   -1.3045    0.0000 C   0  0  0  0  0  0  0  0  0  0  0  0
   -3.2446   -2.6141    0.0000 O   0  0  0  0  0  0  0  0  0  0  0  0
   -1.7324   -5.2051    0.0000 O   0  0  0  0  0  0  0  0  0  0  0  0
   -3.2324   -5.2121    0.0000 C   0  0  0  0  0  0  0  0  0  0  0  0
    1.2675   -5.1910    0.0000 O   0  0  0  0  0  0  0  0  0  0  0  0
  1  2  1  0  0  0  0
  1  6  2  0  0  0  0
  2  3  2  0  0  0  0
  3  4  1  0  0  0  0
  4  5  2  0  0  0  0
  5  6  1  0  0  0  0
  5 11  1  0  0  0  0
  6  7  1  0  0  0  0
  7  8  2  0  0  0  0
  8  9  1  0  0  0  0
  9 10  2  0  0  0  0
  9 11  1  0  0  0  0
  1 12  1  0  0  0  0
 13 14  1  0  0  0  0
 14 15  1  0  0  0  0
 14 17  1  0  0  0  0
 14 18  1  0  0  0  0
 15 16  2  0  0  0  0
  2 16  1  0  0  0  0
  3 17  1  0  0  0  0
 19 20  1  0  0  0  0
  4 19  1  0  0  0  0
  8 21  1  0  0  0  0
 22 23  1  0  0  0  0
 22 27  2  0  0  0  0
 23 24  2  0  0  0  0
 24 25  1  0  0  0  0
 24 31  1  0  0  0  0
 25 26  2  0  0  0  0
 25 29  1  0  0  0  0
 26 27  1  0  0  0  0
 26 28  1  0  0  0  0
 29 30  1  0  0  0  0
  7 22  1  0  0  0  0
M  END
> <score_KierA3>
0.512423

$$$$
suggested molecule #429
 MOE2019            2D

 31 34  0  0  0  0  0  0  0  0999 V2000
    3.4992   -1.2833    0.0000 C   0  0  0  0  0  0  0  0  0  1  0  0
    4.9992   -1.2762    0.0000 C   0  0  0  0  0  0  0  0  0  2  0  0
    5.7430    0.0263    0.0000 C   0  0  0  0  0  0  0  0  0  3  0  0
    4.9869    1.3218    0.0000 C   0  0  0  0  0  0  0  0  0  4  0  0
    3.4870    1.3147    0.0000 C   0  0  0  0  0  0  0  0  0  5  0  0
    2.7431    0.0122    0.0000 C   0  0  0  0  0  0  0  0  0  6  0  0
    1.2431    0.0051    0.0000 C   0  0  0  0  0  0  0  0  0  7  0  0
    0.4870    1.3006    0.0000 C   0  0  0  0  0  0  0  0  0  8  0  0
    1.2309    2.6032    0.0000 C   0  0  0  0  0  0  0  0  0  9  0  0
    0.4748    3.8987    0.0000 O   0  0  0  0  0  0  0  0  0 10  0  0
    2.7309    2.6102    0.0000 O   0  0  0  0  0  0  0  0  0 11  0  0
    2.9041   -2.3253    0.0000 H   0  0  0  0  0  0  0  0  0  0  0  0
    9.3017   -2.0060    0.0000 C   0  0  0  0  0  0  0  0  0  0  0  0
    7.9991   -1.2621    0.0000 C   0  0  0  0  0  0  0  0  0  0  0  0
    7.2552   -2.5647    0.0000 C   0  0  0  0  0  0  0  0  0  0  0  0
    5.7553   -2.5717    0.0000 C   0  0  0  0  0  0  0  0  0  0  0  0
    7.2430    0.0334    0.0000 O   0  0  0  0  0  0  0  0  0  0  0  0
    9.2946   -0.5060    0.0000 C   0  0  0  0  0  0  0  0  0  0  0  0
    5.7308    2.6244    0.0000 O   0  0  0  0  0  0  0  0  0  0  0  0
    4.9747    3.9198    0.0000 C   0  0  0  0  0  0  0  0  0  0  0  0
   -0.7130    1.2950    0.0000 H   0  0  0  0  0  0  0  0  0  0  0  0
    0.4992   -1.2974    0.0000 C   0  0  0  0  0  0  0  0  0  0  0  0
    1.2553   -2.5929    0.0000 C   0  0  0  0  0  0  0  0  0  0  0  0
    0.5114   -3.8955    0.0000 C   0  0  0  0  0  0  0  0  0  0  0  0
   -0.9886   -3.9025    0.0000 C   0  0  0  0  0  0  0  0  0  0  0  0
   -1.7447   -2.6070    0.0000 C   0  0  0  0  0  0  0  0  0  0  0  0
   -1.0008   -1.3045    0.0000 C   0  0  0  0  0  0  0  0  0  0  0  0
   -3.2446   -2.6141    0.0000 O   0  0  0  0  0  0  0  0  0  0  0  0
   -1.7324   -5.2051    0.0000 O   0  0  0  0  0  0  0  0  0  0  0  0
   -3.2324   -5.2121    0.0000 C   0  0  0  0  0  0  0  0  0  0  0  0
    1.2675   -5.1910    0.0000 O   0  0  0  0  0  0  0  0  0  0  0  0
  1  2  1  0  0  0  0
  1  6  2  0  0  0  0
  2  3  2  0  0  0  0
  3  4  1  0  0  0  0
  4  5  2  0  0  0  0
  5  6  1  0  0  0  0
  5 11  1  0  0  0  0
  6  7  1  0  0  0  0
  7  8  2  0  0  0  0
  8  9  1  0  0  0  0
  9 10  2  0  0  0  0
  9 11  1  0  0  0  0
  1 12  1  0  0  0  0
 13 14  1  0  0  0  0
 14 15  1  0  0  0  0
 14 17  1  0  0  0  0
 14 18  1  0  0  0  0
 15 16  2  0  0  0  0
  2 16  1  0  0  0  0
  3 17  1  0  0  0  0
 19 20  1  0  0  0  0
  4 19  1  0  0  0  0
  8 21  1  0  0  0  0
 22 23  1  0  0  0  0
 22 27  2  0  0  0  0
 23 24  2  0  0  0  0
 24 25  1  0  0  0  0
 24 31  1  0  0  0  0
 25 26  2  0  0  0  0
 25 29  1  0  0  0  0
 26 27  1  0  0  0  0
 26 28  1  0  0  0  0
 29 30  1  0  0  0  0
  7 22  1  0  0  0  0
M  END
> <score_KierFlex>
0.516551

$$$$
suggested molecule #430
 MOE2019            2D

 30 33  0  0  0  0  0  0  0  0999 V2000
    3.4992   -1.2833    0.0000 C   0  0  0  0  0  0  0  0  0  1  0  0
    4.9992   -1.2762    0.0000 C   0  0  0  0  0  0  0  0  0  2  0  0
    5.7430    0.0263    0.0000 C   0  0  0  0  0  0  0  0  0  3  0  0
    4.9869    1.3218    0.0000 C   0  0  0  0  0  0  0  0  0  4  0  0
    3.4870    1.3147    0.0000 C   0  0  0  0  0  0  0  0  0  5  0  0
    2.7431    0.0122    0.0000 C   0  0  0  0  0  0  0  0  0  6  0  0
    1.2431    0.0051    0.0000 C   0  0  0  0  0  0  0  0  0  7  0  0
    0.4870    1.3006    0.0000 C   0  0  0  0  0  0  0  0  0  8  0  0
    1.2309    2.6032    0.0000 C   0  0  0  0  0  0  0  0  0  9  0  0
    0.4748    3.8987    0.0000 O   0  0  0  0  0  0  0  0  0 10  0  0
    2.7309    2.6102    0.0000 O   0  0  0  0  0  0  0  0  0 11  0  0
    2.9041   -2.3253    0.0000 H   0  0  0  0  0  0  0  0  0  0  0  0
    9.2946   -0.5060    0.0000 C   0  0  0  0  0  0  0  0  0  0  0  0
    7.9991   -1.2621    0.0000 C   0  0  0  0  0  0  0  0  0  0  0  0
    7.2552   -2.5647    0.0000 C   0  0  0  0  0  0  0  0  0  0  0  0
    5.7553   -2.5717    0.0000 C   0  0  0  0  0  0  0  0  0  0  0  0
    7.2430    0.0334    0.0000 O   0  0  0  0  0  0  0  0  0  0  0  0
    9.3017   -2.0060    0.0000 C   0  0  0  0  0  0  0  0  0  0  0  0
    5.7308    2.6244    0.0000 O   0  0  0  0  0  0  0  0  0  0  0  0
    4.9747    3.9198    0.0000 C   0  0  0  0  0  0  0  0  0  0  0  0
   -0.7130    1.2950    0.0000 H   0  0  0  0  0  0  0  0  0  0  0  0
   -0.9763   -6.5006    0.0000 C   0  0  0  0  0  0  0  0  0  0  0  0
   -1.7324   -5.2051    0.0000 O   0  0  0  0  0  0  0  0  0  0  0  0
   -0.9886   -3.9025    0.0000 C   0  0  0  0  0  0  0  0  0  0  0  0
   -1.7447   -2.6070    0.0000 C   0  0  0  0  0  0  0  0  0  0  0  0
   -1.0008   -1.3045    0.0000 C   0  0  0  0  0  0  0  0  0  0  0  0
    0.4992   -1.2974    0.0000 C   0  0  0  0  0  0  0  0  0  0  0  0
    1.2553   -2.5929    0.0000 C   0  0  0  0  0  0  0  0  0  0  0  0
    0.5114   -3.8955    0.0000 C   0  0  0  0  0  0  0  0  0  0  0  0
   -3.2446   -2.6141    0.0000 O   0  0  0  0  0  0  0  0  0  0  0  0
  1  2  1  0  0  0  0
  1  6  2  0  0  0  0
  2  3  2  0  0  0  0
  3  4  1  0  0  0  0
  4  5  2  0  0  0  0
  5  6  1  0  0  0  0
  5 11  1  0  0  0  0
  6  7  1  0  0  0  0
  7  8  2  0  0  0  0
  8  9  1  0  0  0  0
  9 10  2  0  0  0  0
  9 11  1  0  0  0  0
  1 12  1  0  0  0  0
 13 14  1  0  0  0  0
 14 15  1  0  0  0  0
 14 17  1  0  0  0  0
 14 18  1  0  0  0  0
 15 16  2  0  0  0  0
  2 16  1  0  0  0  0
  3 17  1  0  0  0  0
 19 20  1  0  0  0  0
  4 19  1  0  0  0  0
  8 21  1  0  0  0  0
 22 23  1  0  0  0  0
 23 24  1  0  0  0  0
 24 25  1  0  0  0  0
 24 29  2  0  0  0  0
 25 26  2  0  0  0  0
 25 30  1  0  0  0  0
 26 27  1  0  0  0  0
 27 28  2  0  0  0  0
 28 29  1  0  0  0  0
  7 27  1  0  0  0  0
M  END
> <score_Kier3>
0.511694

$$$$
suggested molecule #431
 MOE2019            2D

 30 33  0  0  0  0  0  0  0  0999 V2000
    3.4992   -1.2833    0.0000 C   0  0  0  0  0  0  0  0  0  1  0  0
    4.9992   -1.2762    0.0000 C   0  0  0  0  0  0  0  0  0  2  0  0
    5.7430    0.0263    0.0000 C   0  0  0  0  0  0  0  0  0  3  0  0
    4.9869    1.3218    0.0000 C   0  0  0  0  0  0  0  0  0  4  0  0
    3.4870    1.3147    0.0000 C   0  0  0  0  0  0  0  0  0  5  0  0
    2.7431    0.0122    0.0000 C   0  0  0  0  0  0  0  0  0  6  0  0
    1.2431    0.0051    0.0000 C   0  0  0  0  0  0  0  0  0  7  0  0
    0.4870    1.3006    0.0000 C   0  0  0  0  0  0  0  0  0  8  0  0
    1.2309    2.6032    0.0000 C   0  0  0  0  0  0  0  0  0  9  0  0
    0.4748    3.8987    0.0000 O   0  0  0  0  0  0  0  0  0 10  0  0
    2.7309    2.6102    0.0000 O   0  0  0  0  0  0  0  0  0 11  0  0
    2.9041   -2.3253    0.0000 H   0  0  0  0  0  0  0  0  0  0  0  0
    9.2946   -0.5060    0.0000 C   0  0  0  0  0  0  0  0  0  0  0  0
    7.9991   -1.2621    0.0000 C   0  0  0  0  0  0  0  0  0  0  0  0
    7.2552   -2.5647    0.0000 C   0  0  0  0  0  0  0  0  0  0  0  0
    5.7553   -2.5717    0.0000 C   0  0  0  0  0  0  0  0  0  0  0  0
    7.2430    0.0334    0.0000 O   0  0  0  0  0  0  0  0  0  0  0  0
    9.3017   -2.0060    0.0000 C   0  0  0  0  0  0  0  0  0  0  0  0
    5.7308    2.6244    0.0000 O   0  0  0  0  0  0  0  0  0  0  0  0
    4.9747    3.9198    0.0000 C   0  0  0  0  0  0  0  0  0  0  0  0
   -0.7130    1.2950    0.0000 H   0  0  0  0  0  0  0  0  0  0  0  0
   -0.9763   -6.5006    0.0000 C   0  0  0  0  0  0  0  0  0  0  0  0
   -1.7324   -5.2051    0.0000 O   0  0  0  0  0  0  0  0  0  0  0  0
   -0.9886   -3.9025    0.0000 C   0  0  0  0  0  0  0  0  0  0  0  0
   -1.7447   -2.6070    0.0000 C   0  0  0  0  0  0  0  0  0  0  0  0
   -1.0008   -1.3045    0.0000 C   0  0  0  0  0  0  0  0  0  0  0  0
    0.4992   -1.2974    0.0000 C   0  0  0  0  0  0  0  0  0  0  0  0
    1.2553   -2.5929    0.0000 C   0  0  0  0  0  0  0  0  0  0  0  0
    0.5114   -3.8955    0.0000 C   0  0  0  0  0  0  0  0  0  0  0  0
   -3.2446   -2.6141    0.0000 O   0  0  0  0  0  0  0  0  0  0  0  0
  1  2  1  0  0  0  0
  1  6  2  0  0  0  0
  2  3  2  0  0  0  0
  3  4  1  0  0  0  0
  4  5  2  0  0  0  0
  5  6  1  0  0  0  0
  5 11  1  0  0  0  0
  6  7  1  0  0  0  0
  7  8  2  0  0  0  0
  8  9  1  0  0  0  0
  9 10  2  0  0  0  0
  9 11  1  0  0  0  0
  1 12  1  0  0  0  0
 13 14  1  0  0  0  0
 14 15  1  0  0  0  0
 14 17  1  0  0  0  0
 14 18  1  0  0  0  0
 15 16  2  0  0  0  0
  2 16  1  0  0  0  0
  3 17  1  0  0  0  0
 19 20  1  0  0  0  0
  4 19  1  0  0  0  0
  8 21  1  0  0  0  0
 22 23  1  0  0  0  0
 23 24  1  0  0  0  0
 24 25  1  0  0  0  0
 24 29  2  0  0  0  0
 25 26  2  0  0  0  0
 25 30  1  0  0  0  0
 26 27  1  0  0  0  0
 27 28  2  0  0  0  0
 28 29  1  0  0  0  0
  7 27  1  0  0  0  0
M  END
> <score_KierA1>
0.517722

$$$$
suggested molecule #432
 MOE2019            2D

 30 33  0  0  0  0  0  0  0  0999 V2000
    3.4992   -1.2833    0.0000 C   0  0  0  0  0  0  0  0  0  1  0  0
    4.9992   -1.2762    0.0000 C   0  0  0  0  0  0  0  0  0  2  0  0
    5.7430    0.0263    0.0000 C   0  0  0  0  0  0  0  0  0  3  0  0
    4.9869    1.3218    0.0000 C   0  0  0  0  0  0  0  0  0  4  0  0
    3.4870    1.3147    0.0000 C   0  0  0  0  0  0  0  0  0  5  0  0
    2.7431    0.0122    0.0000 C   0  0  0  0  0  0  0  0  0  6  0  0
    1.2431    0.0051    0.0000 C   0  0  0  0  0  0  0  0  0  7  0  0
    0.4870    1.3006    0.0000 C   0  0  0  0  0  0  0  0  0  8  0  0
    1.2309    2.6032    0.0000 C   0  0  0  0  0  0  0  0  0  9  0  0
    0.4748    3.8987    0.0000 O   0  0  0  0  0  0  0  0  0 10  0  0
    2.7309    2.6102    0.0000 O   0  0  0  0  0  0  0  0  0 11  0  0
    2.9041   -2.3253    0.0000 H   0  0  0  0  0  0  0  0  0  0  0  0
    9.2946   -0.5060    0.0000 C   0  0  0  0  0  0  0  0  0  0  0  0
    7.9991   -1.2621    0.0000 C   0  0  0  0  0  0  0  0  0  0  0  0
    7.2552   -2.5647    0.0000 C   0  0  0  0  0  0  0  0  0  0  0  0
    5.7553   -2.5717    0.0000 C   0  0  0  0  0  0  0  0  0  0  0  0
    7.2430    0.0334    0.0000 O   0  0  0  0  0  0  0  0  0  0  0  0
    9.3017   -2.0060    0.0000 C   0  0  0  0  0  0  0  0  0  0  0  0
    5.7308    2.6244    0.0000 O   0  0  0  0  0  0  0  0  0  0  0  0
    4.9747    3.9198    0.0000 C   0  0  0  0  0  0  0  0  0  0  0  0
   -0.7130    1.2950    0.0000 H   0  0  0  0  0  0  0  0  0  0  0  0
   -0.9763   -6.5006    0.0000 C   0  0  0  0  0  0  0  0  0  0  0  0
   -1.7324   -5.2051    0.0000 O   0  0  0  0  0  0  0  0  0  0  0  0
   -0.9886   -3.9025    0.0000 C   0  0  0  0  0  0  0  0  0  0  0  0
   -1.7447   -2.6070    0.0000 C   0  0  0  0  0  0  0  0  0  0  0  0
   -1.0008   -1.3045    0.0000 C   0  0  0  0  0  0  0  0  0  0  0  0
    0.4992   -1.2974    0.0000 C   0  0  0  0  0  0  0  0  0  0  0  0
    1.2553   -2.5929    0.0000 C   0  0  0  0  0  0  0  0  0  0  0  0
    0.5114   -3.8955    0.0000 C   0  0  0  0  0  0  0  0  0  0  0  0
   -3.2446   -2.6141    0.0000 O   0  0  0  0  0  0  0  0  0  0  0  0
  1  2  1  0  0  0  0
  1  6  2  0  0  0  0
  2  3  2  0  0  0  0
  3  4  1  0  0  0  0
  4  5  2  0  0  0  0
  5  6  1  0  0  0  0
  5 11  1  0  0  0  0
  6  7  1  0  0  0  0
  7  8  2  0  0  0  0
  8  9  1  0  0  0  0
  9 10  2  0  0  0  0
  9 11  1  0  0  0  0
  1 12  1  0  0  0  0
 13 14  1  0  0  0  0
 14 15  1  0  0  0  0
 14 17  1  0  0  0  0
 14 18  1  0  0  0  0
 15 16  2  0  0  0  0
  2 16  1  0  0  0  0
  3 17  1  0  0  0  0
 19 20  1  0  0  0  0
  4 19  1  0  0  0  0
  8 21  1  0  0  0  0
 22 23  1  0  0  0  0
 23 24  1  0  0  0  0
 24 25  1  0  0  0  0
 24 29  2  0  0  0  0
 25 26  2  0  0  0  0
 25 30  1  0  0  0  0
 26 27  1  0  0  0  0
 27 28  2  0  0  0  0
 28 29  1  0  0  0  0
  7 27  1  0  0  0  0
M  END
> <score_KierA2>
0.516785

$$$$
suggested molecule #433
 MOE2019            2D

 30 33  0  0  0  0  0  0  0  0999 V2000
    3.4992   -1.2833    0.0000 C   0  0  0  0  0  0  0  0  0  1  0  0
    4.9992   -1.2762    0.0000 C   0  0  0  0  0  0  0  0  0  2  0  0
    5.7430    0.0263    0.0000 C   0  0  0  0  0  0  0  0  0  3  0  0
    4.9869    1.3218    0.0000 C   0  0  0  0  0  0  0  0  0  4  0  0
    3.4870    1.3147    0.0000 C   0  0  0  0  0  0  0  0  0  5  0  0
    2.7431    0.0122    0.0000 C   0  0  0  0  0  0  0  0  0  6  0  0
    1.2431    0.0051    0.0000 C   0  0  0  0  0  0  0  0  0  7  0  0
    0.4870    1.3006    0.0000 C   0  0  0  0  0  0  0  0  0  8  0  0
    1.2309    2.6032    0.0000 C   0  0  0  0  0  0  0  0  0  9  0  0
    0.4748    3.8987    0.0000 O   0  0  0  0  0  0  0  0  0 10  0  0
    2.7309    2.6102    0.0000 O   0  0  0  0  0  0  0  0  0 11  0  0
    2.9041   -2.3253    0.0000 H   0  0  0  0  0  0  0  0  0  0  0  0
    9.2946   -0.5060    0.0000 C   0  0  0  0  0  0  0  0  0  0  0  0
    7.9991   -1.2621    0.0000 C   0  0  0  0  0  0  0  0  0  0  0  0
    7.2552   -2.5647    0.0000 C   0  0  0  0  0  0  0  0  0  0  0  0
    5.7553   -2.5717    0.0000 C   0  0  0  0  0  0  0  0  0  0  0  0
    7.2430    0.0334    0.0000 O   0  0  0  0  0  0  0  0  0  0  0  0
    9.3017   -2.0060    0.0000 C   0  0  0  0  0  0  0  0  0  0  0  0
    5.7308    2.6244    0.0000 O   0  0  0  0  0  0  0  0  0  0  0  0
    4.9747    3.9198    0.0000 C   0  0  0  0  0  0  0  0  0  0  0  0
   -0.7130    1.2950    0.0000 H   0  0  0  0  0  0  0  0  0  0  0  0
   -0.9763   -6.5006    0.0000 C   0  0  0  0  0  0  0  0  0  0  0  0
   -1.7324   -5.2051    0.0000 O   0  0  0  0  0  0  0  0  0  0  0  0
   -0.9886   -3.9025    0.0000 C   0  0  0  0  0  0  0  0  0  0  0  0
   -1.7447   -2.6070    0.0000 C   0  0  0  0  0  0  0  0  0  0  0  0
   -1.0008   -1.3045    0.0000 C   0  0  0  0  0  0  0  0  0  0  0  0
    0.4992   -1.2974    0.0000 C   0  0  0  0  0  0  0  0  0  0  0  0
    1.2553   -2.5929    0.0000 C   0  0  0  0  0  0  0  0  0  0  0  0
    0.5114   -3.8955    0.0000 C   0  0  0  0  0  0  0  0  0  0  0  0
   -3.2446   -2.6141    0.0000 O   0  0  0  0  0  0  0  0  0  0  0  0
  1  2  1  0  0  0  0
  1  6  2  0  0  0  0
  2  3  2  0  0  0  0
  3  4  1  0  0  0  0
  4  5  2  0  0  0  0
  5  6  1  0  0  0  0
  5 11  1  0  0  0  0
  6  7  1  0  0  0  0
  7  8  2  0  0  0  0
  8  9  1  0  0  0  0
  9 10  2  0  0  0  0
  9 11  1  0  0  0  0
  1 12  1  0  0  0  0
 13 14  1  0  0  0  0
 14 15  1  0  0  0  0
 14 17  1  0  0  0  0
 14 18  1  0  0  0  0
 15 16  2  0  0  0  0
  2 16  1  0  0  0  0
  3 17  1  0  0  0  0
 19 20  1  0  0  0  0
  4 19  1  0  0  0  0
  8 21  1  0  0  0  0
 22 23  1  0  0  0  0
 23 24  1  0  0  0  0
 24 25  1  0  0  0  0
 24 29  2  0  0  0  0
 25 26  2  0  0  0  0
 25 30  1  0  0  0  0
 26 27  1  0  0  0  0
 27 28  2  0  0  0  0
 28 29  1  0  0  0  0
  7 27  1  0  0  0  0
M  END
> <score_KierA3>
0.512406

$$$$
suggested molecule #434
 MOE2019            2D

 30 33  0  0  0  0  0  0  0  0999 V2000
    3.4992   -1.2833    0.0000 C   0  0  0  0  0  0  0  0  0  1  0  0
    4.9992   -1.2762    0.0000 C   0  0  0  0  0  0  0  0  0  2  0  0
    5.7430    0.0263    0.0000 C   0  0  0  0  0  0  0  0  0  3  0  0
    4.9869    1.3218    0.0000 C   0  0  0  0  0  0  0  0  0  4  0  0
    3.4870    1.3147    0.0000 C   0  0  0  0  0  0  0  0  0  5  0  0
    2.7431    0.0122    0.0000 C   0  0  0  0  0  0  0  0  0  6  0  0
    1.2431    0.0051    0.0000 C   0  0  0  0  0  0  0  0  0  7  0  0
    0.4870    1.3006    0.0000 C   0  0  0  0  0  0  0  0  0  8  0  0
    1.2309    2.6032    0.0000 C   0  0  0  0  0  0  0  0  0  9  0  0
    0.4748    3.8987    0.0000 O   0  0  0  0  0  0  0  0  0 10  0  0
    2.7309    2.6102    0.0000 O   0  0  0  0  0  0  0  0  0 11  0  0
    2.9041   -2.3253    0.0000 H   0  0  0  0  0  0  0  0  0  0  0  0
    9.2946   -0.5060    0.0000 C   0  0  0  0  0  0  0  0  0  0  0  0
    7.9991   -1.2621    0.0000 C   0  0  0  0  0  0  0  0  0  0  0  0
    7.2552   -2.5647    0.0000 C   0  0  0  0  0  0  0  0  0  0  0  0
    5.7553   -2.5717    0.0000 C   0  0  0  0  0  0  0  0  0  0  0  0
    7.2430    0.0334    0.0000 O   0  0  0  0  0  0  0  0  0  0  0  0
    9.3017   -2.0060    0.0000 C   0  0  0  0  0  0  0  0  0  0  0  0
    5.7308    2.6244    0.0000 O   0  0  0  0  0  0  0  0  0  0  0  0
    4.9747    3.9198    0.0000 C   0  0  0  0  0  0  0  0  0  0  0  0
   -0.7130    1.2950    0.0000 H   0  0  0  0  0  0  0  0  0  0  0  0
   -0.9763   -6.5006    0.0000 C   0  0  0  0  0  0  0  0  0  0  0  0
   -1.7324   -5.2051    0.0000 O   0  0  0  0  0  0  0  0  0  0  0  0
   -0.9886   -3.9025    0.0000 C   0  0  0  0  0  0  0  0  0  0  0  0
   -1.7447   -2.6070    0.0000 C   0  0  0  0  0  0  0  0  0  0  0  0
   -1.0008   -1.3045    0.0000 C   0  0  0  0  0  0  0  0  0  0  0  0
    0.4992   -1.2974    0.0000 C   0  0  0  0  0  0  0  0  0  0  0  0
    1.2553   -2.5929    0.0000 C   0  0  0  0  0  0  0  0  0  0  0  0
    0.5114   -3.8955    0.0000 C   0  0  0  0  0  0  0  0  0  0  0  0
   -3.2446   -2.6141    0.0000 O   0  0  0  0  0  0  0  0  0  0  0  0
  1  2  1  0  0  0  0
  1  6  2  0  0  0  0
  2  3  2  0  0  0  0
  3  4  1  0  0  0  0
  4  5  2  0  0  0  0
  5  6  1  0  0  0  0
  5 11  1  0  0  0  0
  6  7  1  0  0  0  0
  7  8  2  0  0  0  0
  8  9  1  0  0  0  0
  9 10  2  0  0  0  0
  9 11  1  0  0  0  0
  1 12  1  0  0  0  0
 13 14  1  0  0  0  0
 14 15  1  0  0  0  0
 14 17  1  0  0  0  0
 14 18  1  0  0  0  0
 15 16  2  0  0  0  0
  2 16  1  0  0  0  0
  3 17  1  0  0  0  0
 19 20  1  0  0  0  0
  4 19  1  0  0  0  0
  8 21  1  0  0  0  0
 22 23  1  0  0  0  0
 23 24  1  0  0  0  0
 24 25  1  0  0  0  0
 24 29  2  0  0  0  0
 25 26  2  0  0  0  0
 25 30  1  0  0  0  0
 26 27  1  0  0  0  0
 27 28  2  0  0  0  0
 28 29  1  0  0  0  0
  7 27  1  0  0  0  0
M  END
> <score_KierFlex>
0.516538

$$$$
suggested molecule #435
 MOE2019            2D

 30 33  0  0  0  0  0  0  0  0999 V2000
    3.4992   -1.2833    0.0000 C   0  0  0  0  0  0  0  0  0  1  0  0
    4.9992   -1.2762    0.0000 C   0  0  0  0  0  0  0  0  0  2  0  0
    5.7430    0.0263    0.0000 C   0  0  0  0  0  0  0  0  0  3  0  0
    4.9869    1.3218    0.0000 C   0  0  0  0  0  0  0  0  0  4  0  0
    3.4870    1.3147    0.0000 C   0  0  0  0  0  0  0  0  0  5  0  0
    2.7431    0.0122    0.0000 C   0  0  0  0  0  0  0  0  0  6  0  0
    1.2431    0.0051    0.0000 C   0  0  0  0  0  0  0  0  0  7  0  0
    0.4870    1.3006    0.0000 C   0  0  0  0  0  0  0  0  0  8  0  0
    1.2309    2.6032    0.0000 C   0  0  0  0  0  0  0  0  0  9  0  0
    0.4748    3.8987    0.0000 O   0  0  0  0  0  0  0  0  0 10  0  0
    2.7309    2.6102    0.0000 O   0  0  0  0  0  0  0  0  0 11  0  0
    2.9041   -2.3253    0.0000 H   0  0  0  0  0  0  0  0  0  0  0  0
    9.3017   -2.0060    0.0000 C   0  0  0  0  0  0  0  0  0  0  0  0
    7.9991   -1.2621    0.0000 C   0  0  0  0  0  0  0  0  0  0  0  0
    7.2552   -2.5647    0.0000 C   0  0  0  0  0  0  0  0  0  0  0  0
    5.7553   -2.5717    0.0000 C   0  0  0  0  0  0  0  0  0  0  0  0
    7.2430    0.0334    0.0000 O   0  0  0  0  0  0  0  0  0  0  0  0
    9.2946   -0.5060    0.0000 C   0  0  0  0  0  0  0  0  0  0  0  0
    5.7308    2.6244    0.0000 O   0  0  0  0  0  0  0  0  0  0  0  0
    4.9747    3.9198    0.0000 C   0  0  0  0  0  0  0  0  0  0  0  0
   -0.7130    1.2950    0.0000 H   0  0  0  0  0  0  0  0  0  0  0  0
    1.2553   -2.5929    0.0000 C   0  0  0  0  0  0  0  0  0  0  0  0
    0.5114   -3.8955    0.0000 C   0  0  0  0  0  0  0  0  0  0  0  0
   -0.9886   -3.9025    0.0000 C   0  0  0  0  0  0  0  0  0  0  0  0
   -1.7447   -2.6070    0.0000 C   0  0  0  0  0  0  0  0  0  0  0  0
   -1.0008   -1.3045    0.0000 C   0  0  0  0  0  0  0  0  0  0  0  0
    0.4992   -1.2974    0.0000 C   0  0  0  0  0  0  0  0  0  0  0  0
   -1.7569   -0.0090    0.0000 O   0  0  0  0  0  0  0  0  0  0  0  0
   -3.2446   -2.6141    0.0000 O   0  0  0  0  0  0  0  0  0  0  0  0
   -1.7324   -5.2051    0.0000 O   0  0  0  0  0  0  0  0  0  0  0  0
  1  2  1  0  0  0  0
  1  6  2  0  0  0  0
  2  3  2  0  0  0  0
  3  4  1  0  0  0  0
  4  5  2  0  0  0  0
  5  6  1  0  0  0  0
  5 11  1  0  0  0  0
  6  7  1  0  0  0  0
  7  8  2  0  0  0  0
  8  9  1  0  0  0  0
  9 10  2  0  0  0  0
  9 11  1  0  0  0  0
  1 12  1  0  0  0  0
 13 14  1  0  0  0  0
 14 15  1  0  0  0  0
 14 17  1  0  0  0  0
 14 18  1  0  0  0  0
 15 16  2  0  0  0  0
  2 16  1  0  0  0  0
  3 17  1  0  0  0  0
 19 20  1  0  0  0  0
  4 19  1  0  0  0  0
  8 21  1  0  0  0  0
 22 23  1  0  0  0  0
 22 27  2  0  0  0  0
 23 24  2  0  0  0  0
 24 25  1  0  0  0  0
 24 30  1  0  0  0  0
 25 26  2  0  0  0  0
 25 29  1  0  0  0  0
 26 27  1  0  0  0  0
 26 28  1  0  0  0  0
  7 27  1  0  0  0  0
M  END
> <score_Kier1>
0.517751

$$$$
suggested molecule #436
 MOE2019            2D

 30 33  0  0  0  0  0  0  0  0999 V2000
    3.4992   -1.2833    0.0000 C   0  0  0  0  0  0  0  0  0  1  0  0
    4.9992   -1.2762    0.0000 C   0  0  0  0  0  0  0  0  0  2  0  0
    5.7430    0.0263    0.0000 C   0  0  0  0  0  0  0  0  0  3  0  0
    4.9869    1.3218    0.0000 C   0  0  0  0  0  0  0  0  0  4  0  0
    3.4870    1.3147    0.0000 C   0  0  0  0  0  0  0  0  0  5  0  0
    2.7431    0.0122    0.0000 C   0  0  0  0  0  0  0  0  0  6  0  0
    1.2431    0.0051    0.0000 C   0  0  0  0  0  0  0  0  0  7  0  0
    0.4870    1.3006    0.0000 C   0  0  0  0  0  0  0  0  0  8  0  0
    1.2309    2.6032    0.0000 C   0  0  0  0  0  0  0  0  0  9  0  0
    0.4748    3.8987    0.0000 O   0  0  0  0  0  0  0  0  0 10  0  0
    2.7309    2.6102    0.0000 O   0  0  0  0  0  0  0  0  0 11  0  0
    2.9041   -2.3253    0.0000 H   0  0  0  0  0  0  0  0  0  0  0  0
    9.3017   -2.0060    0.0000 C   0  0  0  0  0  0  0  0  0  0  0  0
    7.9991   -1.2621    0.0000 C   0  0  0  0  0  0  0  0  0  0  0  0
    7.2552   -2.5647    0.0000 C   0  0  0  0  0  0  0  0  0  0  0  0
    5.7553   -2.5717    0.0000 C   0  0  0  0  0  0  0  0  0  0  0  0
    7.2430    0.0334    0.0000 O   0  0  0  0  0  0  0  0  0  0  0  0
    9.2946   -0.5060    0.0000 C   0  0  0  0  0  0  0  0  0  0  0  0
    5.7308    2.6244    0.0000 O   0  0  0  0  0  0  0  0  0  0  0  0
    4.9747    3.9198    0.0000 C   0  0  0  0  0  0  0  0  0  0  0  0
   -0.7130    1.2950    0.0000 H   0  0  0  0  0  0  0  0  0  0  0  0
    1.2553   -2.5929    0.0000 C   0  0  0  0  0  0  0  0  0  0  0  0
    0.5114   -3.8955    0.0000 C   0  0  0  0  0  0  0  0  0  0  0  0
   -0.9886   -3.9025    0.0000 C   0  0  0  0  0  0  0  0  0  0  0  0
   -1.7447   -2.6070    0.0000 C   0  0  0  0  0  0  0  0  0  0  0  0
   -1.0008   -1.3045    0.0000 C   0  0  0  0  0  0  0  0  0  0  0  0
    0.4992   -1.2974    0.0000 C   0  0  0  0  0  0  0  0  0  0  0  0
   -1.7569   -0.0090    0.0000 O   0  0  0  0  0  0  0  0  0  0  0  0
   -3.2446   -2.6141    0.0000 O   0  0  0  0  0  0  0  0  0  0  0  0
   -1.7324   -5.2051    0.0000 O   0  0  0  0  0  0  0  0  0  0  0  0
  1  2  1  0  0  0  0
  1  6  2  0  0  0  0
  2  3  2  0  0  0  0
  3  4  1  0  0  0  0
  4  5  2  0  0  0  0
  5  6  1  0  0  0  0
  5 11  1  0  0  0  0
  6  7  1  0  0  0  0
  7  8  2  0  0  0  0
  8  9  1  0  0  0  0
  9 10  2  0  0  0  0
  9 11  1  0  0  0  0
  1 12  1  0  0  0  0
 13 14  1  0  0  0  0
 14 15  1  0  0  0  0
 14 17  1  0  0  0  0
 14 18  1  0  0  0  0
 15 16  2  0  0  0  0
  2 16  1  0  0  0  0
  3 17  1  0  0  0  0
 19 20  1  0  0  0  0
  4 19  1  0  0  0  0
  8 21  1  0  0  0  0
 22 23  1  0  0  0  0
 22 27  2  0  0  0  0
 23 24  2  0  0  0  0
 24 25  1  0  0  0  0
 24 30  1  0  0  0  0
 25 26  2  0  0  0  0
 25 29  1  0  0  0  0
 26 27  1  0  0  0  0
 26 28  1  0  0  0  0
  7 27  1  0  0  0  0
M  END
> <score_Kier2>
0.516466

$$$$
suggested molecule #437
 MOE2019            2D

 30 33  0  0  0  0  0  0  0  0999 V2000
    3.4992   -1.2833    0.0000 C   0  0  0  0  0  0  0  0  0  1  0  0
    4.9992   -1.2762    0.0000 C   0  0  0  0  0  0  0  0  0  2  0  0
    5.7430    0.0263    0.0000 C   0  0  0  0  0  0  0  0  0  3  0  0
    4.9869    1.3218    0.0000 C   0  0  0  0  0  0  0  0  0  4  0  0
    3.4870    1.3147    0.0000 C   0  0  0  0  0  0  0  0  0  5  0  0
    2.7431    0.0122    0.0000 C   0  0  0  0  0  0  0  0  0  6  0  0
    1.2431    0.0051    0.0000 C   0  0  0  0  0  0  0  0  0  7  0  0
    0.4870    1.3006    0.0000 C   0  0  0  0  0  0  0  0  0  8  0  0
    1.2309    2.6032    0.0000 C   0  0  0  0  0  0  0  0  0  9  0  0
    0.4748    3.8987    0.0000 O   0  0  0  0  0  0  0  0  0 10  0  0
    2.7309    2.6102    0.0000 O   0  0  0  0  0  0  0  0  0 11  0  0
    2.9041   -2.3253    0.0000 H   0  0  0  0  0  0  0  0  0  0  0  0
    9.3017   -2.0060    0.0000 C   0  0  0  0  0  0  0  0  0  0  0  0
    7.9991   -1.2621    0.0000 C   0  0  0  0  0  0  0  0  0  0  0  0
    7.2552   -2.5647    0.0000 C   0  0  0  0  0  0  0  0  0  0  0  0
    5.7553   -2.5717    0.0000 C   0  0  0  0  0  0  0  0  0  0  0  0
    7.2430    0.0334    0.0000 O   0  0  0  0  0  0  0  0  0  0  0  0
    9.2946   -0.5060    0.0000 C   0  0  0  0  0  0  0  0  0  0  0  0
    5.7308    2.6244    0.0000 O   0  0  0  0  0  0  0  0  0  0  0  0
    4.9747    3.9198    0.0000 C   0  0  0  0  0  0  0  0  0  0  0  0
   -0.7130    1.2950    0.0000 H   0  0  0  0  0  0  0  0  0  0  0  0
    1.2553   -2.5929    0.0000 C   0  0  0  0  0  0  0  0  0  0  0  0
    0.5114   -3.8955    0.0000 C   0  0  0  0  0  0  0  0  0  0  0  0
   -0.9886   -3.9025    0.0000 C   0  0  0  0  0  0  0  0  0  0  0  0
   -1.7447   -2.6070    0.0000 C   0  0  0  0  0  0  0  0  0  0  0  0
   -1.0008   -1.3045    0.0000 C   0  0  0  0  0  0  0  0  0  0  0  0
    0.4992   -1.2974    0.0000 C   0  0  0  0  0  0  0  0  0  0  0  0
   -1.7569   -0.0090    0.0000 O   0  0  0  0  0  0  0  0  0  0  0  0
   -3.2446   -2.6141    0.0000 O   0  0  0  0  0  0  0  0  0  0  0  0
   -1.7324   -5.2051    0.0000 O   0  0  0  0  0  0  0  0  0  0  0  0
  1  2  1  0  0  0  0
  1  6  2  0  0  0  0
  2  3  2  0  0  0  0
  3  4  1  0  0  0  0
  4  5  2  0  0  0  0
  5  6  1  0  0  0  0
  5 11  1  0  0  0  0
  6  7  1  0  0  0  0
  7  8  2  0  0  0  0
  8  9  1  0  0  0  0
  9 10  2  0  0  0  0
  9 11  1  0  0  0  0
  1 12  1  0  0  0  0
 13 14  1  0  0  0  0
 14 15  1  0  0  0  0
 14 17  1  0  0  0  0
 14 18  1  0  0  0  0
 15 16  2  0  0  0  0
  2 16  1  0  0  0  0
  3 17  1  0  0  0  0
 19 20  1  0  0  0  0
  4 19  1  0  0  0  0
  8 21  1  0  0  0  0
 22 23  1  0  0  0  0
 22 27  2  0  0  0  0
 23 24  2  0  0  0  0
 24 25  1  0  0  0  0
 24 30  1  0  0  0  0
 25 26  2  0  0  0  0
 25 29  1  0  0  0  0
 26 27  1  0  0  0  0
 26 28  1  0  0  0  0
  7 27  1  0  0  0  0
M  END
> <score_Kier3>
0.511762

$$$$
suggested molecule #438
 MOE2019            2D

 30 33  0  0  0  0  0  0  0  0999 V2000
    3.4992   -1.2833    0.0000 C   0  0  0  0  0  0  0  0  0  1  0  0
    4.9992   -1.2762    0.0000 C   0  0  0  0  0  0  0  0  0  2  0  0
    5.7430    0.0263    0.0000 C   0  0  0  0  0  0  0  0  0  3  0  0
    4.9869    1.3218    0.0000 C   0  0  0  0  0  0  0  0  0  4  0  0
    3.4870    1.3147    0.0000 C   0  0  0  0  0  0  0  0  0  5  0  0
    2.7431    0.0122    0.0000 C   0  0  0  0  0  0  0  0  0  6  0  0
    1.2431    0.0051    0.0000 C   0  0  0  0  0  0  0  0  0  7  0  0
    0.4870    1.3006    0.0000 C   0  0  0  0  0  0  0  0  0  8  0  0
    1.2309    2.6032    0.0000 C   0  0  0  0  0  0  0  0  0  9  0  0
    0.4748    3.8987    0.0000 O   0  0  0  0  0  0  0  0  0 10  0  0
    2.7309    2.6102    0.0000 O   0  0  0  0  0  0  0  0  0 11  0  0
    2.9041   -2.3253    0.0000 H   0  0  0  0  0  0  0  0  0  0  0  0
    9.3017   -2.0060    0.0000 C   0  0  0  0  0  0  0  0  0  0  0  0
    7.9991   -1.2621    0.0000 C   0  0  0  0  0  0  0  0  0  0  0  0
    7.2552   -2.5647    0.0000 C   0  0  0  0  0  0  0  0  0  0  0  0
    5.7553   -2.5717    0.0000 C   0  0  0  0  0  0  0  0  0  0  0  0
    7.2430    0.0334    0.0000 O   0  0  0  0  0  0  0  0  0  0  0  0
    9.2946   -0.5060    0.0000 C   0  0  0  0  0  0  0  0  0  0  0  0
    5.7308    2.6244    0.0000 O   0  0  0  0  0  0  0  0  0  0  0  0
    4.9747    3.9198    0.0000 C   0  0  0  0  0  0  0  0  0  0  0  0
   -0.7130    1.2950    0.0000 H   0  0  0  0  0  0  0  0  0  0  0  0
    1.2553   -2.5929    0.0000 C   0  0  0  0  0  0  0  0  0  0  0  0
    0.5114   -3.8955    0.0000 C   0  0  0  0  0  0  0  0  0  0  0  0
   -0.9886   -3.9025    0.0000 C   0  0  0  0  0  0  0  0  0  0  0  0
   -1.7447   -2.6070    0.0000 C   0  0  0  0  0  0  0  0  0  0  0  0
   -1.0008   -1.3045    0.0000 C   0  0  0  0  0  0  0  0  0  0  0  0
    0.4992   -1.2974    0.0000 C   0  0  0  0  0  0  0  0  0  0  0  0
   -1.7569   -0.0090    0.0000 O   0  0  0  0  0  0  0  0  0  0  0  0
   -3.2446   -2.6141    0.0000 O   0  0  0  0  0  0  0  0  0  0  0  0
   -1.7324   -5.2051    0.0000 O   0  0  0  0  0  0  0  0  0  0  0  0
  1  2  1  0  0  0  0
  1  6  2  0  0  0  0
  2  3  2  0  0  0  0
  3  4  1  0  0  0  0
  4  5  2  0  0  0  0
  5  6  1  0  0  0  0
  5 11  1  0  0  0  0
  6  7  1  0  0  0  0
  7  8  2  0  0  0  0
  8  9  1  0  0  0  0
  9 10  2  0  0  0  0
  9 11  1  0  0  0  0
  1 12  1  0  0  0  0
 13 14  1  0  0  0  0
 14 15  1  0  0  0  0
 14 17  1  0  0  0  0
 14 18  1  0  0  0  0
 15 16  2  0  0  0  0
  2 16  1  0  0  0  0
  3 17  1  0  0  0  0
 19 20  1  0  0  0  0
  4 19  1  0  0  0  0
  8 21  1  0  0  0  0
 22 23  1  0  0  0  0
 22 27  2  0  0  0  0
 23 24  2  0  0  0  0
 24 25  1  0  0  0  0
 24 30  1  0  0  0  0
 25 26  2  0  0  0  0
 25 29  1  0  0  0  0
 26 27  1  0  0  0  0
 26 28  1  0  0  0  0
  7 27  1  0  0  0  0
M  END
> <score_KierA1>
0.517803

$$$$
suggested molecule #439
 MOE2019            2D

 30 33  0  0  0  0  0  0  0  0999 V2000
    3.4992   -1.2833    0.0000 C   0  0  0  0  0  0  0  0  0  1  0  0
    4.9992   -1.2762    0.0000 C   0  0  0  0  0  0  0  0  0  2  0  0
    5.7430    0.0263    0.0000 C   0  0  0  0  0  0  0  0  0  3  0  0
    4.9869    1.3218    0.0000 C   0  0  0  0  0  0  0  0  0  4  0  0
    3.4870    1.3147    0.0000 C   0  0  0  0  0  0  0  0  0  5  0  0
    2.7431    0.0122    0.0000 C   0  0  0  0  0  0  0  0  0  6  0  0
    1.2431    0.0051    0.0000 C   0  0  0  0  0  0  0  0  0  7  0  0
    0.4870    1.3006    0.0000 C   0  0  0  0  0  0  0  0  0  8  0  0
    1.2309    2.6032    0.0000 C   0  0  0  0  0  0  0  0  0  9  0  0
    0.4748    3.8987    0.0000 O   0  0  0  0  0  0  0  0  0 10  0  0
    2.7309    2.6102    0.0000 O   0  0  0  0  0  0  0  0  0 11  0  0
    2.9041   -2.3253    0.0000 H   0  0  0  0  0  0  0  0  0  0  0  0
    9.3017   -2.0060    0.0000 C   0  0  0  0  0  0  0  0  0  0  0  0
    7.9991   -1.2621    0.0000 C   0  0  0  0  0  0  0  0  0  0  0  0
    7.2552   -2.5647    0.0000 C   0  0  0  0  0  0  0  0  0  0  0  0
    5.7553   -2.5717    0.0000 C   0  0  0  0  0  0  0  0  0  0  0  0
    7.2430    0.0334    0.0000 O   0  0  0  0  0  0  0  0  0  0  0  0
    9.2946   -0.5060    0.0000 C   0  0  0  0  0  0  0  0  0  0  0  0
    5.7308    2.6244    0.0000 O   0  0  0  0  0  0  0  0  0  0  0  0
    4.9747    3.9198    0.0000 C   0  0  0  0  0  0  0  0  0  0  0  0
   -0.7130    1.2950    0.0000 H   0  0  0  0  0  0  0  0  0  0  0  0
    1.2553   -2.5929    0.0000 C   0  0  0  0  0  0  0  0  0  0  0  0
    0.5114   -3.8955    0.0000 C   0  0  0  0  0  0  0  0  0  0  0  0
   -0.9886   -3.9025    0.0000 C   0  0  0  0  0  0  0  0  0  0  0  0
   -1.7447   -2.6070    0.0000 C   0  0  0  0  0  0  0  0  0  0  0  0
   -1.0008   -1.3045    0.0000 C   0  0  0  0  0  0  0  0  0  0  0  0
    0.4992   -1.2974    0.0000 C   0  0  0  0  0  0  0  0  0  0  0  0
   -1.7569   -0.0090    0.0000 O   0  0  0  0  0  0  0  0  0  0  0  0
   -3.2446   -2.6141    0.0000 O   0  0  0  0  0  0  0  0  0  0  0  0
   -1.7324   -5.2051    0.0000 O   0  0  0  0  0  0  0  0  0  0  0  0
  1  2  1  0  0  0  0
  1  6  2  0  0  0  0
  2  3  2  0  0  0  0
  3  4  1  0  0  0  0
  4  5  2  0  0  0  0
  5  6  1  0  0  0  0
  5 11  1  0  0  0  0
  6  7  1  0  0  0  0
  7  8  2  0  0  0  0
  8  9  1  0  0  0  0
  9 10  2  0  0  0  0
  9 11  1  0  0  0  0
  1 12  1  0  0  0  0
 13 14  1  0  0  0  0
 14 15  1  0  0  0  0
 14 17  1  0  0  0  0
 14 18  1  0  0  0  0
 15 16  2  0  0  0  0
  2 16  1  0  0  0  0
  3 17  1  0  0  0  0
 19 20  1  0  0  0  0
  4 19  1  0  0  0  0
  8 21  1  0  0  0  0
 22 23  1  0  0  0  0
 22 27  2  0  0  0  0
 23 24  2  0  0  0  0
 24 25  1  0  0  0  0
 24 30  1  0  0  0  0
 25 26  2  0  0  0  0
 25 29  1  0  0  0  0
 26 27  1  0  0  0  0
 26 28  1  0  0  0  0
  7 27  1  0  0  0  0
M  END
> <score_KierA2>
0.516867

$$$$
suggested molecule #440
 MOE2019            2D

 30 33  0  0  0  0  0  0  0  0999 V2000
    3.4992   -1.2833    0.0000 C   0  0  0  0  0  0  0  0  0  1  0  0
    4.9992   -1.2762    0.0000 C   0  0  0  0  0  0  0  0  0  2  0  0
    5.7430    0.0263    0.0000 C   0  0  0  0  0  0  0  0  0  3  0  0
    4.9869    1.3218    0.0000 C   0  0  0  0  0  0  0  0  0  4  0  0
    3.4870    1.3147    0.0000 C   0  0  0  0  0  0  0  0  0  5  0  0
    2.7431    0.0122    0.0000 C   0  0  0  0  0  0  0  0  0  6  0  0
    1.2431    0.0051    0.0000 C   0  0  0  0  0  0  0  0  0  7  0  0
    0.4870    1.3006    0.0000 C   0  0  0  0  0  0  0  0  0  8  0  0
    1.2309    2.6032    0.0000 C   0  0  0  0  0  0  0  0  0  9  0  0
    0.4748    3.8987    0.0000 O   0  0  0  0  0  0  0  0  0 10  0  0
    2.7309    2.6102    0.0000 O   0  0  0  0  0  0  0  0  0 11  0  0
    2.9041   -2.3253    0.0000 H   0  0  0  0  0  0  0  0  0  0  0  0
    9.3017   -2.0060    0.0000 C   0  0  0  0  0  0  0  0  0  0  0  0
    7.9991   -1.2621    0.0000 C   0  0  0  0  0  0  0  0  0  0  0  0
    7.2552   -2.5647    0.0000 C   0  0  0  0  0  0  0  0  0  0  0  0
    5.7553   -2.5717    0.0000 C   0  0  0  0  0  0  0  0  0  0  0  0
    7.2430    0.0334    0.0000 O   0  0  0  0  0  0  0  0  0  0  0  0
    9.2946   -0.5060    0.0000 C   0  0  0  0  0  0  0  0  0  0  0  0
    5.7308    2.6244    0.0000 O   0  0  0  0  0  0  0  0  0  0  0  0
    4.9747    3.9198    0.0000 C   0  0  0  0  0  0  0  0  0  0  0  0
   -0.7130    1.2950    0.0000 H   0  0  0  0  0  0  0  0  0  0  0  0
    1.2553   -2.5929    0.0000 C   0  0  0  0  0  0  0  0  0  0  0  0
    0.5114   -3.8955    0.0000 C   0  0  0  0  0  0  0  0  0  0  0  0
   -0.9886   -3.9025    0.0000 C   0  0  0  0  0  0  0  0  0  0  0  0
   -1.7447   -2.6070    0.0000 C   0  0  0  0  0  0  0  0  0  0  0  0
   -1.0008   -1.3045    0.0000 C   0  0  0  0  0  0  0  0  0  0  0  0
    0.4992   -1.2974    0.0000 C   0  0  0  0  0  0  0  0  0  0  0  0
   -1.7569   -0.0090    0.0000 O   0  0  0  0  0  0  0  0  0  0  0  0
   -3.2446   -2.6141    0.0000 O   0  0  0  0  0  0  0  0  0  0  0  0
   -1.7324   -5.2051    0.0000 O   0  0  0  0  0  0  0  0  0  0  0  0
  1  2  1  0  0  0  0
  1  6  2  0  0  0  0
  2  3  2  0  0  0  0
  3  4  1  0  0  0  0
  4  5  2  0  0  0  0
  5  6  1  0  0  0  0
  5 11  1  0  0  0  0
  6  7  1  0  0  0  0
  7  8  2  0  0  0  0
  8  9  1  0  0  0  0
  9 10  2  0  0  0  0
  9 11  1  0  0  0  0
  1 12  1  0  0  0  0
 13 14  1  0  0  0  0
 14 15  1  0  0  0  0
 14 17  1  0  0  0  0
 14 18  1  0  0  0  0
 15 16  2  0  0  0  0
  2 16  1  0  0  0  0
  3 17  1  0  0  0  0
 19 20  1  0  0  0  0
  4 19  1  0  0  0  0
  8 21  1  0  0  0  0
 22 23  1  0  0  0  0
 22 27  2  0  0  0  0
 23 24  2  0  0  0  0
 24 25  1  0  0  0  0
 24 30  1  0  0  0  0
 25 26  2  0  0  0  0
 25 29  1  0  0  0  0
 26 27  1  0  0  0  0
 26 28  1  0  0  0  0
  7 27  1  0  0  0  0
M  END
> <score_KierA3>
0.512484

$$$$
suggested molecule #441
 MOE2019            2D

 30 33  0  0  0  0  0  0  0  0999 V2000
    3.4992   -1.2833    0.0000 C   0  0  0  0  0  0  0  0  0  1  0  0
    4.9992   -1.2762    0.0000 C   0  0  0  0  0  0  0  0  0  2  0  0
    5.7430    0.0263    0.0000 C   0  0  0  0  0  0  0  0  0  3  0  0
    4.9869    1.3218    0.0000 C   0  0  0  0  0  0  0  0  0  4  0  0
    3.4870    1.3147    0.0000 C   0  0  0  0  0  0  0  0  0  5  0  0
    2.7431    0.0122    0.0000 C   0  0  0  0  0  0  0  0  0  6  0  0
    1.2431    0.0051    0.0000 C   0  0  0  0  0  0  0  0  0  7  0  0
    0.4870    1.3006    0.0000 C   0  0  0  0  0  0  0  0  0  8  0  0
    1.2309    2.6032    0.0000 C   0  0  0  0  0  0  0  0  0  9  0  0
    0.4748    3.8987    0.0000 O   0  0  0  0  0  0  0  0  0 10  0  0
    2.7309    2.6102    0.0000 O   0  0  0  0  0  0  0  0  0 11  0  0
    2.9041   -2.3253    0.0000 H   0  0  0  0  0  0  0  0  0  0  0  0
    9.3017   -2.0060    0.0000 C   0  0  0  0  0  0  0  0  0  0  0  0
    7.9991   -1.2621    0.0000 C   0  0  0  0  0  0  0  0  0  0  0  0
    7.2552   -2.5647    0.0000 C   0  0  0  0  0  0  0  0  0  0  0  0
    5.7553   -2.5717    0.0000 C   0  0  0  0  0  0  0  0  0  0  0  0
    7.2430    0.0334    0.0000 O   0  0  0  0  0  0  0  0  0  0  0  0
    9.2946   -0.5060    0.0000 C   0  0  0  0  0  0  0  0  0  0  0  0
    5.7308    2.6244    0.0000 O   0  0  0  0  0  0  0  0  0  0  0  0
    4.9747    3.9198    0.0000 C   0  0  0  0  0  0  0  0  0  0  0  0
   -0.7130    1.2950    0.0000 H   0  0  0  0  0  0  0  0  0  0  0  0
    1.2553   -2.5929    0.0000 C   0  0  0  0  0  0  0  0  0  0  0  0
    0.5114   -3.8955    0.0000 C   0  0  0  0  0  0  0  0  0  0  0  0
   -0.9886   -3.9025    0.0000 C   0  0  0  0  0  0  0  0  0  0  0  0
   -1.7447   -2.6070    0.0000 C   0  0  0  0  0  0  0  0  0  0  0  0
   -1.0008   -1.3045    0.0000 C   0  0  0  0  0  0  0  0  0  0  0  0
    0.4992   -1.2974    0.0000 C   0  0  0  0  0  0  0  0  0  0  0  0
   -1.7569   -0.0090    0.0000 O   0  0  0  0  0  0  0  0  0  0  0  0
   -3.2446   -2.6141    0.0000 O   0  0  0  0  0  0  0  0  0  0  0  0
   -1.7324   -5.2051    0.0000 O   0  0  0  0  0  0  0  0  0  0  0  0
  1  2  1  0  0  0  0
  1  6  2  0  0  0  0
  2  3  2  0  0  0  0
  3  4  1  0  0  0  0
  4  5  2  0  0  0  0
  5  6  1  0  0  0  0
  5 11  1  0  0  0  0
  6  7  1  0  0  0  0
  7  8  2  0  0  0  0
  8  9  1  0  0  0  0
  9 10  2  0  0  0  0
  9 11  1  0  0  0  0
  1 12  1  0  0  0  0
 13 14  1  0  0  0  0
 14 15  1  0  0  0  0
 14 17  1  0  0  0  0
 14 18  1  0  0  0  0
 15 16  2  0  0  0  0
  2 16  1  0  0  0  0
  3 17  1  0  0  0  0
 19 20  1  0  0  0  0
  4 19  1  0  0  0  0
  8 21  1  0  0  0  0
 22 23  1  0  0  0  0
 22 27  2  0  0  0  0
 23 24  2  0  0  0  0
 24 25  1  0  0  0  0
 24 30  1  0  0  0  0
 25 26  2  0  0  0  0
 25 29  1  0  0  0  0
 26 27  1  0  0  0  0
 26 28  1  0  0  0  0
  7 27  1  0  0  0  0
M  END
> <score_KierFlex>
0.516628

$$$$
suggested molecule #442
 MOE2019            2D

 29 32  0  0  0  0  0  0  0  0999 V2000
    3.4992   -1.2833    0.0000 C   0  0  0  0  0  0  0  0  0  1  0  0
    4.9992   -1.2762    0.0000 C   0  0  0  0  0  0  0  0  0  2  0  0
    5.7430    0.0263    0.0000 C   0  0  0  0  0  0  0  0  0  3  0  0
    4.9869    1.3218    0.0000 C   0  0  0  0  0  0  0  0  0  4  0  0
    3.4870    1.3147    0.0000 C   0  0  0  0  0  0  0  0  0  5  0  0
    2.7431    0.0122    0.0000 C   0  0  0  0  0  0  0  0  0  6  0  0
    1.2431    0.0051    0.0000 C   0  0  0  0  0  0  0  0  0  7  0  0
    0.4870    1.3006    0.0000 C   0  0  0  0  0  0  0  0  0  8  0  0
    1.2309    2.6032    0.0000 C   0  0  0  0  0  0  0  0  0  9  0  0
    0.4748    3.8987    0.0000 O   0  0  0  0  0  0  0  0  0 10  0  0
    2.7309    2.6102    0.0000 O   0  0  0  0  0  0  0  0  0 11  0  0
    2.9041   -2.3253    0.0000 H   0  0  0  0  0  0  0  0  0  0  0  0
    9.2946   -0.5060    0.0000 C   0  0  0  0  0  0  0  0  0  0  0  0
    7.9991   -1.2621    0.0000 C   0  0  0  0  0  0  0  0  0  0  0  0
    7.2552   -2.5647    0.0000 C   0  0  0  0  0  0  0  0  0  0  0  0
    5.7553   -2.5717    0.0000 C   0  0  0  0  0  0  0  0  0  0  0  0
    7.2430    0.0334    0.0000 O   0  0  0  0  0  0  0  0  0  0  0  0
    9.3017   -2.0060    0.0000 C   0  0  0  0  0  0  0  0  0  0  0  0
    5.7308    2.6244    0.0000 O   0  0  0  0  0  0  0  0  0  0  0  0
    4.9747    3.9198    0.0000 C   0  0  0  0  0  0  0  0  0  0  0  0
   -0.7130    1.2950    0.0000 H   0  0  0  0  0  0  0  0  0  0  0  0
    0.4992   -1.2974    0.0000 C   0  0  0  0  0  0  0  0  0  0  0  0
   -1.0008   -1.3045    0.0000 C   0  0  0  0  0  0  0  0  0  0  0  0
   -1.7447   -2.6070    0.0000 C   0  0  0  0  0  0  0  0  0  0  0  0
   -0.9886   -3.9025    0.0000 C   0  0  0  0  0  0  0  0  0  0  0  0
    0.5114   -3.8955    0.0000 C   0  0  0  0  0  0  0  0  0  0  0  0
    1.2553   -2.5929    0.0000 C   0  0  0  0  0  0  0  0  0  0  0  0
   -1.7324   -5.2051    0.0000 O   0  0  0  0  0  0  0  0  0  0  0  0
   -1.7569   -0.0090    0.0000 O   0  0  0  0  0  0  0  0  0  0  0  0
  1  2  1  0  0  0  0
  1  6  2  0  0  0  0
  2  3  2  0  0  0  0
  3  4  1  0  0  0  0
  4  5  2  0  0  0  0
  5  6  1  0  0  0  0
  5 11  1  0  0  0  0
  6  7  1  0  0  0  0
  7  8  2  0  0  0  0
  8  9  1  0  0  0  0
  9 10  2  0  0  0  0
  9 11  1  0  0  0  0
  1 12  1  0  0  0  0
 13 14  1  0  0  0  0
 14 15  1  0  0  0  0
 14 17  1  0  0  0  0
 14 18  1  0  0  0  0
 15 16  2  0  0  0  0
  2 16  1  0  0  0  0
  3 17  1  0  0  0  0
 19 20  1  0  0  0  0
  4 19  1  0  0  0  0
  8 21  1  0  0  0  0
 22 23  1  0  0  0  0
 22 27  2  0  0  0  0
 23 24  2  0  0  0  0
 23 29  1  0  0  0  0
 24 25  1  0  0  0  0
 25 26  2  0  0  0  0
 25 28  1  0  0  0  0
 26 27  1  0  0  0  0
  7 22  1  0  0  0  0
M  END
> <score_Kier1>
0.517712

$$$$
suggested molecule #443
 MOE2019            2D

 29 32  0  0  0  0  0  0  0  0999 V2000
    3.4992   -1.2833    0.0000 C   0  0  0  0  0  0  0  0  0  1  0  0
    4.9992   -1.2762    0.0000 C   0  0  0  0  0  0  0  0  0  2  0  0
    5.7430    0.0263    0.0000 C   0  0  0  0  0  0  0  0  0  3  0  0
    4.9869    1.3218    0.0000 C   0  0  0  0  0  0  0  0  0  4  0  0
    3.4870    1.3147    0.0000 C   0  0  0  0  0  0  0  0  0  5  0  0
    2.7431    0.0122    0.0000 C   0  0  0  0  0  0  0  0  0  6  0  0
    1.2431    0.0051    0.0000 C   0  0  0  0  0  0  0  0  0  7  0  0
    0.4870    1.3006    0.0000 C   0  0  0  0  0  0  0  0  0  8  0  0
    1.2309    2.6032    0.0000 C   0  0  0  0  0  0  0  0  0  9  0  0
    0.4748    3.8987    0.0000 O   0  0  0  0  0  0  0  0  0 10  0  0
    2.7309    2.6102    0.0000 O   0  0  0  0  0  0  0  0  0 11  0  0
    2.9041   -2.3253    0.0000 H   0  0  0  0  0  0  0  0  0  0  0  0
    9.2946   -0.5060    0.0000 C   0  0  0  0  0  0  0  0  0  0  0  0
    7.9991   -1.2621    0.0000 C   0  0  0  0  0  0  0  0  0  0  0  0
    7.2552   -2.5647    0.0000 C   0  0  0  0  0  0  0  0  0  0  0  0
    5.7553   -2.5717    0.0000 C   0  0  0  0  0  0  0  0  0  0  0  0
    7.2430    0.0334    0.0000 O   0  0  0  0  0  0  0  0  0  0  0  0
    9.3017   -2.0060    0.0000 C   0  0  0  0  0  0  0  0  0  0  0  0
    5.7308    2.6244    0.0000 O   0  0  0  0  0  0  0  0  0  0  0  0
    4.9747    3.9198    0.0000 C   0  0  0  0  0  0  0  0  0  0  0  0
   -0.7130    1.2950    0.0000 H   0  0  0  0  0  0  0  0  0  0  0  0
    0.4992   -1.2974    0.0000 C   0  0  0  0  0  0  0  0  0  0  0  0
   -1.0008   -1.3045    0.0000 C   0  0  0  0  0  0  0  0  0  0  0  0
   -1.7447   -2.6070    0.0000 C   0  0  0  0  0  0  0  0  0  0  0  0
   -0.9886   -3.9025    0.0000 C   0  0  0  0  0  0  0  0  0  0  0  0
    0.5114   -3.8955    0.0000 C   0  0  0  0  0  0  0  0  0  0  0  0
    1.2553   -2.5929    0.0000 C   0  0  0  0  0  0  0  0  0  0  0  0
   -1.7324   -5.2051    0.0000 O   0  0  0  0  0  0  0  0  0  0  0  0
   -1.7569   -0.0090    0.0000 O   0  0  0  0  0  0  0  0  0  0  0  0
  1  2  1  0  0  0  0
  1  6  2  0  0  0  0
  2  3  2  0  0  0  0
  3  4  1  0  0  0  0
  4  5  2  0  0  0  0
  5  6  1  0  0  0  0
  5 11  1  0  0  0  0
  6  7  1  0  0  0  0
  7  8  2  0  0  0  0
  8  9  1  0  0  0  0
  9 10  2  0  0  0  0
  9 11  1  0  0  0  0
  1 12  1  0  0  0  0
 13 14  1  0  0  0  0
 14 15  1  0  0  0  0
 14 17  1  0  0  0  0
 14 18  1  0  0  0  0
 15 16  2  0  0  0  0
  2 16  1  0  0  0  0
  3 17  1  0  0  0  0
 19 20  1  0  0  0  0
  4 19  1  0  0  0  0
  8 21  1  0  0  0  0
 22 23  1  0  0  0  0
 22 27  2  0  0  0  0
 23 24  2  0  0  0  0
 23 29  1  0  0  0  0
 24 25  1  0  0  0  0
 25 26  2  0  0  0  0
 25 28  1  0  0  0  0
 26 27  1  0  0  0  0
  7 22  1  0  0  0  0
M  END
> <score_Kier3>
0.511723

$$$$
suggested molecule #444
 MOE2019            2D

 29 32  0  0  0  0  0  0  0  0999 V2000
    3.4992   -1.2833    0.0000 C   0  0  0  0  0  0  0  0  0  1  0  0
    4.9992   -1.2762    0.0000 C   0  0  0  0  0  0  0  0  0  2  0  0
    5.7430    0.0263    0.0000 C   0  0  0  0  0  0  0  0  0  3  0  0
    4.9869    1.3218    0.0000 C   0  0  0  0  0  0  0  0  0  4  0  0
    3.4870    1.3147    0.0000 C   0  0  0  0  0  0  0  0  0  5  0  0
    2.7431    0.0122    0.0000 C   0  0  0  0  0  0  0  0  0  6  0  0
    1.2431    0.0051    0.0000 C   0  0  0  0  0  0  0  0  0  7  0  0
    0.4870    1.3006    0.0000 C   0  0  0  0  0  0  0  0  0  8  0  0
    1.2309    2.6032    0.0000 C   0  0  0  0  0  0  0  0  0  9  0  0
    0.4748    3.8987    0.0000 O   0  0  0  0  0  0  0  0  0 10  0  0
    2.7309    2.6102    0.0000 O   0  0  0  0  0  0  0  0  0 11  0  0
    2.9041   -2.3253    0.0000 H   0  0  0  0  0  0  0  0  0  0  0  0
    9.2946   -0.5060    0.0000 C   0  0  0  0  0  0  0  0  0  0  0  0
    7.9991   -1.2621    0.0000 C   0  0  0  0  0  0  0  0  0  0  0  0
    7.2552   -2.5647    0.0000 C   0  0  0  0  0  0  0  0  0  0  0  0
    5.7553   -2.5717    0.0000 C   0  0  0  0  0  0  0  0  0  0  0  0
    7.2430    0.0334    0.0000 O   0  0  0  0  0  0  0  0  0  0  0  0
    9.3017   -2.0060    0.0000 C   0  0  0  0  0  0  0  0  0  0  0  0
    5.7308    2.6244    0.0000 O   0  0  0  0  0  0  0  0  0  0  0  0
    4.9747    3.9198    0.0000 C   0  0  0  0  0  0  0  0  0  0  0  0
   -0.7130    1.2950    0.0000 H   0  0  0  0  0  0  0  0  0  0  0  0
    0.4992   -1.2974    0.0000 C   0  0  0  0  0  0  0  0  0  0  0  0
   -1.0008   -1.3045    0.0000 C   0  0  0  0  0  0  0  0  0  0  0  0
   -1.7447   -2.6070    0.0000 C   0  0  0  0  0  0  0  0  0  0  0  0
   -0.9886   -3.9025    0.0000 C   0  0  0  0  0  0  0  0  0  0  0  0
    0.5114   -3.8955    0.0000 C   0  0  0  0  0  0  0  0  0  0  0  0
    1.2553   -2.5929    0.0000 C   0  0  0  0  0  0  0  0  0  0  0  0
   -1.7324   -5.2051    0.0000 O   0  0  0  0  0  0  0  0  0  0  0  0
   -1.7569   -0.0090    0.0000 O   0  0  0  0  0  0  0  0  0  0  0  0
  1  2  1  0  0  0  0
  1  6  2  0  0  0  0
  2  3  2  0  0  0  0
  3  4  1  0  0  0  0
  4  5  2  0  0  0  0
  5  6  1  0  0  0  0
  5 11  1  0  0  0  0
  6  7  1  0  0  0  0
  7  8  2  0  0  0  0
  8  9  1  0  0  0  0
  9 10  2  0  0  0  0
  9 11  1  0  0  0  0
  1 12  1  0  0  0  0
 13 14  1  0  0  0  0
 14 15  1  0  0  0  0
 14 17  1  0  0  0  0
 14 18  1  0  0  0  0
 15 16  2  0  0  0  0
  2 16  1  0  0  0  0
  3 17  1  0  0  0  0
 19 20  1  0  0  0  0
  4 19  1  0  0  0  0
  8 21  1  0  0  0  0
 22 23  1  0  0  0  0
 22 27  2  0  0  0  0
 23 24  2  0  0  0  0
 23 29  1  0  0  0  0
 24 25  1  0  0  0  0
 25 26  2  0  0  0  0
 25 28  1  0  0  0  0
 26 27  1  0  0  0  0
  7 22  1  0  0  0  0
M  END
> <score_KierA1>
0.517769

$$$$
suggested molecule #445
 MOE2019            2D

 29 32  0  0  0  0  0  0  0  0999 V2000
    3.4992   -1.2833    0.0000 C   0  0  0  0  0  0  0  0  0  1  0  0
    4.9992   -1.2762    0.0000 C   0  0  0  0  0  0  0  0  0  2  0  0
    5.7430    0.0263    0.0000 C   0  0  0  0  0  0  0  0  0  3  0  0
    4.9869    1.3218    0.0000 C   0  0  0  0  0  0  0  0  0  4  0  0
    3.4870    1.3147    0.0000 C   0  0  0  0  0  0  0  0  0  5  0  0
    2.7431    0.0122    0.0000 C   0  0  0  0  0  0  0  0  0  6  0  0
    1.2431    0.0051    0.0000 C   0  0  0  0  0  0  0  0  0  7  0  0
    0.4870    1.3006    0.0000 C   0  0  0  0  0  0  0  0  0  8  0  0
    1.2309    2.6032    0.0000 C   0  0  0  0  0  0  0  0  0  9  0  0
    0.4748    3.8987    0.0000 O   0  0  0  0  0  0  0  0  0 10  0  0
    2.7309    2.6102    0.0000 O   0  0  0  0  0  0  0  0  0 11  0  0
    2.9041   -2.3253    0.0000 H   0  0  0  0  0  0  0  0  0  0  0  0
    9.2946   -0.5060    0.0000 C   0  0  0  0  0  0  0  0  0  0  0  0
    7.9991   -1.2621    0.0000 C   0  0  0  0  0  0  0  0  0  0  0  0
    7.2552   -2.5647    0.0000 C   0  0  0  0  0  0  0  0  0  0  0  0
    5.7553   -2.5717    0.0000 C   0  0  0  0  0  0  0  0  0  0  0  0
    7.2430    0.0334    0.0000 O   0  0  0  0  0  0  0  0  0  0  0  0
    9.3017   -2.0060    0.0000 C   0  0  0  0  0  0  0  0  0  0  0  0
    5.7308    2.6244    0.0000 O   0  0  0  0  0  0  0  0  0  0  0  0
    4.9747    3.9198    0.0000 C   0  0  0  0  0  0  0  0  0  0  0  0
   -0.7130    1.2950    0.0000 H   0  0  0  0  0  0  0  0  0  0  0  0
    0.4992   -1.2974    0.0000 C   0  0  0  0  0  0  0  0  0  0  0  0
   -1.0008   -1.3045    0.0000 C   0  0  0  0  0  0  0  0  0  0  0  0
   -1.7447   -2.6070    0.0000 C   0  0  0  0  0  0  0  0  0  0  0  0
   -0.9886   -3.9025    0.0000 C   0  0  0  0  0  0  0  0  0  0  0  0
    0.5114   -3.8955    0.0000 C   0  0  0  0  0  0  0  0  0  0  0  0
    1.2553   -2.5929    0.0000 C   0  0  0  0  0  0  0  0  0  0  0  0
   -1.7324   -5.2051    0.0000 O   0  0  0  0  0  0  0  0  0  0  0  0
   -1.7569   -0.0090    0.0000 O   0  0  0  0  0  0  0  0  0  0  0  0
  1  2  1  0  0  0  0
  1  6  2  0  0  0  0
  2  3  2  0  0  0  0
  3  4  1  0  0  0  0
  4  5  2  0  0  0  0
  5  6  1  0  0  0  0
  5 11  1  0  0  0  0
  6  7  1  0  0  0  0
  7  8  2  0  0  0  0
  8  9  1  0  0  0  0
  9 10  2  0  0  0  0
  9 11  1  0  0  0  0
  1 12  1  0  0  0  0
 13 14  1  0  0  0  0
 14 15  1  0  0  0  0
 14 17  1  0  0  0  0
 14 18  1  0  0  0  0
 15 16  2  0  0  0  0
  2 16  1  0  0  0  0
  3 17  1  0  0  0  0
 19 20  1  0  0  0  0
  4 19  1  0  0  0  0
  8 21  1  0  0  0  0
 22 23  1  0  0  0  0
 22 27  2  0  0  0  0
 23 24  2  0  0  0  0
 23 29  1  0  0  0  0
 24 25  1  0  0  0  0
 25 26  2  0  0  0  0
 25 28  1  0  0  0  0
 26 27  1  0  0  0  0
  7 22  1  0  0  0  0
M  END
> <score_KierA2>
0.516832

$$$$
suggested molecule #446
 MOE2019            2D

 29 32  0  0  0  0  0  0  0  0999 V2000
    3.4992   -1.2833    0.0000 C   0  0  0  0  0  0  0  0  0  1  0  0
    4.9992   -1.2762    0.0000 C   0  0  0  0  0  0  0  0  0  2  0  0
    5.7430    0.0263    0.0000 C   0  0  0  0  0  0  0  0  0  3  0  0
    4.9869    1.3218    0.0000 C   0  0  0  0  0  0  0  0  0  4  0  0
    3.4870    1.3147    0.0000 C   0  0  0  0  0  0  0  0  0  5  0  0
    2.7431    0.0122    0.0000 C   0  0  0  0  0  0  0  0  0  6  0  0
    1.2431    0.0051    0.0000 C   0  0  0  0  0  0  0  0  0  7  0  0
    0.4870    1.3006    0.0000 C   0  0  0  0  0  0  0  0  0  8  0  0
    1.2309    2.6032    0.0000 C   0  0  0  0  0  0  0  0  0  9  0  0
    0.4748    3.8987    0.0000 O   0  0  0  0  0  0  0  0  0 10  0  0
    2.7309    2.6102    0.0000 O   0  0  0  0  0  0  0  0  0 11  0  0
    2.9041   -2.3253    0.0000 H   0  0  0  0  0  0  0  0  0  0  0  0
    9.2946   -0.5060    0.0000 C   0  0  0  0  0  0  0  0  0  0  0  0
    7.9991   -1.2621    0.0000 C   0  0  0  0  0  0  0  0  0  0  0  0
    7.2552   -2.5647    0.0000 C   0  0  0  0  0  0  0  0  0  0  0  0
    5.7553   -2.5717    0.0000 C   0  0  0  0  0  0  0  0  0  0  0  0
    7.2430    0.0334    0.0000 O   0  0  0  0  0  0  0  0  0  0  0  0
    9.3017   -2.0060    0.0000 C   0  0  0  0  0  0  0  0  0  0  0  0
    5.7308    2.6244    0.0000 O   0  0  0  0  0  0  0  0  0  0  0  0
    4.9747    3.9198    0.0000 C   0  0  0  0  0  0  0  0  0  0  0  0
   -0.7130    1.2950    0.0000 H   0  0  0  0  0  0  0  0  0  0  0  0
    0.4992   -1.2974    0.0000 C   0  0  0  0  0  0  0  0  0  0  0  0
   -1.0008   -1.3045    0.0000 C   0  0  0  0  0  0  0  0  0  0  0  0
   -1.7447   -2.6070    0.0000 C   0  0  0  0  0  0  0  0  0  0  0  0
   -0.9886   -3.9025    0.0000 C   0  0  0  0  0  0  0  0  0  0  0  0
    0.5114   -3.8955    0.0000 C   0  0  0  0  0  0  0  0  0  0  0  0
    1.2553   -2.5929    0.0000 C   0  0  0  0  0  0  0  0  0  0  0  0
   -1.7324   -5.2051    0.0000 O   0  0  0  0  0  0  0  0  0  0  0  0
   -1.7569   -0.0090    0.0000 O   0  0  0  0  0  0  0  0  0  0  0  0
  1  2  1  0  0  0  0
  1  6  2  0  0  0  0
  2  3  2  0  0  0  0
  3  4  1  0  0  0  0
  4  5  2  0  0  0  0
  5  6  1  0  0  0  0
  5 11  1  0  0  0  0
  6  7  1  0  0  0  0
  7  8  2  0  0  0  0
  8  9  1  0  0  0  0
  9 10  2  0  0  0  0
  9 11  1  0  0  0  0
  1 12  1  0  0  0  0
 13 14  1  0  0  0  0
 14 15  1  0  0  0  0
 14 17  1  0  0  0  0
 14 18  1  0  0  0  0
 15 16  2  0  0  0  0
  2 16  1  0  0  0  0
  3 17  1  0  0  0  0
 19 20  1  0  0  0  0
  4 19  1  0  0  0  0
  8 21  1  0  0  0  0
 22 23  1  0  0  0  0
 22 27  2  0  0  0  0
 23 24  2  0  0  0  0
 23 29  1  0  0  0  0
 24 25  1  0  0  0  0
 25 26  2  0  0  0  0
 25 28  1  0  0  0  0
 26 27  1  0  0  0  0
  7 22  1  0  0  0  0
M  END
> <score_KierA3>
0.512447

$$$$
suggested molecule #447
 MOE2019            2D

 29 32  0  0  0  0  0  0  0  0999 V2000
    3.4992   -1.2833    0.0000 C   0  0  0  0  0  0  0  0  0  1  0  0
    4.9992   -1.2762    0.0000 C   0  0  0  0  0  0  0  0  0  2  0  0
    5.7430    0.0263    0.0000 C   0  0  0  0  0  0  0  0  0  3  0  0
    4.9869    1.3218    0.0000 C   0  0  0  0  0  0  0  0  0  4  0  0
    3.4870    1.3147    0.0000 C   0  0  0  0  0  0  0  0  0  5  0  0
    2.7431    0.0122    0.0000 C   0  0  0  0  0  0  0  0  0  6  0  0
    1.2431    0.0051    0.0000 C   0  0  0  0  0  0  0  0  0  7  0  0
    0.4870    1.3006    0.0000 C   0  0  0  0  0  0  0  0  0  8  0  0
    1.2309    2.6032    0.0000 C   0  0  0  0  0  0  0  0  0  9  0  0
    0.4748    3.8987    0.0000 O   0  0  0  0  0  0  0  0  0 10  0  0
    2.7309    2.6102    0.0000 O   0  0  0  0  0  0  0  0  0 11  0  0
    2.9041   -2.3253    0.0000 H   0  0  0  0  0  0  0  0  0  0  0  0
    9.2946   -0.5060    0.0000 C   0  0  0  0  0  0  0  0  0  0  0  0
    7.9991   -1.2621    0.0000 C   0  0  0  0  0  0  0  0  0  0  0  0
    7.2552   -2.5647    0.0000 C   0  0  0  0  0  0  0  0  0  0  0  0
    5.7553   -2.5717    0.0000 C   0  0  0  0  0  0  0  0  0  0  0  0
    7.2430    0.0334    0.0000 O   0  0  0  0  0  0  0  0  0  0  0  0
    9.3017   -2.0060    0.0000 C   0  0  0  0  0  0  0  0  0  0  0  0
    5.7308    2.6244    0.0000 O   0  0  0  0  0  0  0  0  0  0  0  0
    4.9747    3.9198    0.0000 C   0  0  0  0  0  0  0  0  0  0  0  0
   -0.7130    1.2950    0.0000 H   0  0  0  0  0  0  0  0  0  0  0  0
    0.4992   -1.2974    0.0000 C   0  0  0  0  0  0  0  0  0  0  0  0
   -1.0008   -1.3045    0.0000 C   0  0  0  0  0  0  0  0  0  0  0  0
   -1.7447   -2.6070    0.0000 C   0  0  0  0  0  0  0  0  0  0  0  0
   -0.9886   -3.9025    0.0000 C   0  0  0  0  0  0  0  0  0  0  0  0
    0.5114   -3.8955    0.0000 C   0  0  0  0  0  0  0  0  0  0  0  0
    1.2553   -2.5929    0.0000 C   0  0  0  0  0  0  0  0  0  0  0  0
   -1.7324   -5.2051    0.0000 O   0  0  0  0  0  0  0  0  0  0  0  0
   -1.7569   -0.0090    0.0000 O   0  0  0  0  0  0  0  0  0  0  0  0
  1  2  1  0  0  0  0
  1  6  2  0  0  0  0
  2  3  2  0  0  0  0
  3  4  1  0  0  0  0
  4  5  2  0  0  0  0
  5  6  1  0  0  0  0
  5 11  1  0  0  0  0
  6  7  1  0  0  0  0
  7  8  2  0  0  0  0
  8  9  1  0  0  0  0
  9 10  2  0  0  0  0
  9 11  1  0  0  0  0
  1 12  1  0  0  0  0
 13 14  1  0  0  0  0
 14 15  1  0  0  0  0
 14 17  1  0  0  0  0
 14 18  1  0  0  0  0
 15 16  2  0  0  0  0
  2 16  1  0  0  0  0
  3 17  1  0  0  0  0
 19 20  1  0  0  0  0
  4 19  1  0  0  0  0
  8 21  1  0  0  0  0
 22 23  1  0  0  0  0
 22 27  2  0  0  0  0
 23 24  2  0  0  0  0
 23 29  1  0  0  0  0
 24 25  1  0  0  0  0
 25 26  2  0  0  0  0
 25 28  1  0  0  0  0
 26 27  1  0  0  0  0
  7 22  1  0  0  0  0
M  END
> <score_KierFlex>
0.516591

$$$$
suggested molecule #448
 MOE2019            2D

 40 44  0  0  1  0  0  0  0  0999 V2000
    3.4992   -1.2833    0.0000 C   0  0  0  0  0  0  0  0  0  1  0  0
    4.9992   -1.2762    0.0000 C   0  0  0  0  0  0  0  0  0  2  0  0
    5.7430    0.0263    0.0000 C   0  0  0  0  0  0  0  0  0  3  0  0
    4.9869    1.3218    0.0000 C   0  0  0  0  0  0  0  0  0  4  0  0
    3.4870    1.3147    0.0000 C   0  0  0  0  0  0  0  0  0  5  0  0
    2.7431    0.0122    0.0000 C   0  0  0  0  0  0  0  0  0  6  0  0
    1.2431    0.0051    0.0000 C   0  0  0  0  0  0  0  0  0  7  0  0
    0.4870    1.3006    0.0000 C   0  0  0  0  0  0  0  0  0  8  0  0
    1.2309    2.6032    0.0000 C   0  0  0  0  0  0  0  0  0  9  0  0
    0.4748    3.8987    0.0000 O   0  0  0  0  0  0  0  0  0 10  0  0
    2.7309    2.6102    0.0000 O   0  0  0  0  0  0  0  0  0 11  0  0
    2.9041   -2.3253    0.0000 H   0  0  0  0  0  0  0  0  0  0  0  0
    9.3017   -2.0060    0.0000 C   0  0  0  0  0  0  0  0  0  0  0  0
    7.9991   -1.2621    0.0000 C   0  0  0  0  0  0  0  0  0  0  0  0
    7.2552   -2.5647    0.0000 C   0  0  0  0  0  0  0  0  0  0  0  0
    5.7553   -2.5717    0.0000 C   0  0  0  0  0  0  0  0  0  0  0  0
    7.2430    0.0334    0.0000 O   0  0  0  0  0  0  0  0  0  0  0  0
    9.2946   -0.5060    0.0000 C   0  0  0  0  0  0  0  0  0  0  0  0
    5.7308    2.6244    0.0000 O   0  0  0  0  0  0  0  0  0  0  0  0
    4.9747    3.9198    0.0000 C   0  0  0  0  0  0  0  0  0  0  0  0
   -0.7130    1.2950    0.0000 H   0  0  0  0  0  0  0  0  0  0  0  0
   -1.0008   -1.3045    0.0000 C   0  0  0  0  0  0  0  0  0  0  0  0
   -1.7447   -2.6070    0.0000 C   0  0  0  0  0  0  0  0  0  0  0  0
   -0.9886   -3.9025    0.0000 C   0  0  0  0  0  0  0  0  0  0  0  0
    0.5114   -3.8955    0.0000 C   0  0  0  0  0  0  0  0  0  0  0  0
    1.2553   -2.5929    0.0000 C   0  0  0  0  0  0  0  0  0  0  0  0
    0.4992   -1.2974    0.0000 C   0  0  0  0  0  0  0  0  0  0  0  0
    1.2675   -5.1910    0.0000 O   0  0  0  0  0  0  0  0  0  0  0  0
   -1.7324   -5.2051    0.0000 O   0  0  0  0  0  0  0  0  0  0  0  0
   -3.2324   -5.2121    0.0000 C   0  0  1  0  0  0  0  0  0  0  0  0
   -3.9763   -6.5147    0.0000 C   0  0  1  0  0  0  0  0  0  0  0  0
   -5.4763   -6.5217    0.0000 C   0  0  2  0  0  0  0  0  0  0  0  0
   -6.2324   -5.2262    0.0000 C   0  0  1  0  0  0  0  0  0  0  0  0
   -5.4885   -3.9237    0.0000 C   0  0  2  0  0  0  0  0  0  0  0  0
   -3.9885   -3.9166    0.0000 O   0  0  0  0  0  0  0  0  0  0  0  0
   -6.2446   -2.6282    0.0000 C   0  0  0  0  0  0  0  0  0  0  0  0
   -7.7446   -2.6352    0.0000 O   0  0  0  0  0  0  0  0  0  0  0  0
   -7.7324   -5.2333    0.0000 O   0  0  0  0  0  0  0  0  0  0  0  0
   -6.2202   -7.8243    0.0000 O   0  0  0  0  0  0  0  0  0  0  0  0
   -3.2202   -7.8102    0.0000 O   0  0  0  0  0  0  0  0  0  0  0  0
  1  2  2  0  0  0  0
  1  6  1  0  0  0  0
  2  3  1  0  0  0  0
  3  4  2  0  0  0  0
  4  5  1  0  0  0  0
  5  6  2  0  0  0  0
  5 11  1  0  0  0  0
  6  7  1  0  0  0  0
  7  8  2  0  0  0  0
  8  9  1  0  0  0  0
  9 10  2  0  0  0  0
  9 11  1  0  0  0  0
  1 12  1  0  0  0  0
 13 14  1  0  0  0  0
 14 15  1  0  0  0  0
 14 17  1  0  0  0  0
 14 18  1  0  0  0  0
 15 16  2  0  0  0  0
  2 16  1  0  0  0  0
  3 17  1  0  0  0  0
 19 20  1  0  0  0  0
  4 19  1  0  0  0  0
  8 21  1  0  0  0  0
 22 23  1  0  0  0  0
 22 27  2  0  0  0  0
 23 24  2  0  0  0  0
 24 25  1  0  0  0  0
 24 29  1  0  0  0  0
 25 26  2  0  0  0  0
 25 28  1  0  0  0  0
 26 27  1  0  0  0  0
 30 29  1  1  0  0  0
 30 31  1  0  0  0  0
 30 35  1  0  0  0  0
 31 32  1  0  0  0  0
 31 40  1  6  0  0  0
 32 33  1  0  0  0  0
 32 39  1  1  0  0  0
 33 34  1  0  0  0  0
 33 38  1  6  0  0  0
 34 35  1  0  0  0  0
 34 36  1  1  0  0  0
 36 37  1  0  0  0  0
  7 27  1  0  0  0  0
M  END
> <score_Kier1>
0.517703

$$$$
suggested molecule #449
 MOE2019            2D

 40 44  0  0  1  0  0  0  0  0999 V2000
    3.4992   -1.2833    0.0000 C   0  0  0  0  0  0  0  0  0  1  0  0
    4.9992   -1.2762    0.0000 C   0  0  0  0  0  0  0  0  0  2  0  0
    5.7430    0.0263    0.0000 C   0  0  0  0  0  0  0  0  0  3  0  0
    4.9869    1.3218    0.0000 C   0  0  0  0  0  0  0  0  0  4  0  0
    3.4870    1.3147    0.0000 C   0  0  0  0  0  0  0  0  0  5  0  0
    2.7431    0.0122    0.0000 C   0  0  0  0  0  0  0  0  0  6  0  0
    1.2431    0.0051    0.0000 C   0  0  0  0  0  0  0  0  0  7  0  0
    0.4870    1.3006    0.0000 C   0  0  0  0  0  0  0  0  0  8  0  0
    1.2309    2.6032    0.0000 C   0  0  0  0  0  0  0  0  0  9  0  0
    0.4748    3.8987    0.0000 O   0  0  0  0  0  0  0  0  0 10  0  0
    2.7309    2.6102    0.0000 O   0  0  0  0  0  0  0  0  0 11  0  0
    2.9041   -2.3253    0.0000 H   0  0  0  0  0  0  0  0  0  0  0  0
    9.3017   -2.0060    0.0000 C   0  0  0  0  0  0  0  0  0  0  0  0
    7.9991   -1.2621    0.0000 C   0  0  0  0  0  0  0  0  0  0  0  0
    7.2552   -2.5647    0.0000 C   0  0  0  0  0  0  0  0  0  0  0  0
    5.7553   -2.5717    0.0000 C   0  0  0  0  0  0  0  0  0  0  0  0
    7.2430    0.0334    0.0000 O   0  0  0  0  0  0  0  0  0  0  0  0
    9.2946   -0.5060    0.0000 C   0  0  0  0  0  0  0  0  0  0  0  0
    5.7308    2.6244    0.0000 O   0  0  0  0  0  0  0  0  0  0  0  0
    4.9747    3.9198    0.0000 C   0  0  0  0  0  0  0  0  0  0  0  0
   -0.7130    1.2950    0.0000 H   0  0  0  0  0  0  0  0  0  0  0  0
   -1.0008   -1.3045    0.0000 C   0  0  0  0  0  0  0  0  0  0  0  0
   -1.7447   -2.6070    0.0000 C   0  0  0  0  0  0  0  0  0  0  0  0
   -0.9886   -3.9025    0.0000 C   0  0  0  0  0  0  0  0  0  0  0  0
    0.5114   -3.8955    0.0000 C   0  0  0  0  0  0  0  0  0  0  0  0
    1.2553   -2.5929    0.0000 C   0  0  0  0  0  0  0  0  0  0  0  0
    0.4992   -1.2974    0.0000 C   0  0  0  0  0  0  0  0  0  0  0  0
    1.2675   -5.1910    0.0000 O   0  0  0  0  0  0  0  0  0  0  0  0
   -1.7324   -5.2051    0.0000 O   0  0  0  0  0  0  0  0  0  0  0  0
   -3.2324   -5.2121    0.0000 C   0  0  1  0  0  0  0  0  0  0  0  0
   -3.9763   -6.5147    0.0000 C   0  0  1  0  0  0  0  0  0  0  0  0
   -5.4763   -6.5217    0.0000 C   0  0  2  0  0  0  0  0  0  0  0  0
   -6.2324   -5.2262    0.0000 C   0  0  1  0  0  0  0  0  0  0  0  0
   -5.4885   -3.9237    0.0000 C   0  0  2  0  0  0  0  0  0  0  0  0
   -3.9885   -3.9166    0.0000 O   0  0  0  0  0  0  0  0  0  0  0  0
   -6.2446   -2.6282    0.0000 C   0  0  0  0  0  0  0  0  0  0  0  0
   -7.7446   -2.6352    0.0000 O   0  0  0  0  0  0  0  0  0  0  0  0
   -7.7324   -5.2333    0.0000 O   0  0  0  0  0  0  0  0  0  0  0  0
   -6.2202   -7.8243    0.0000 O   0  0  0  0  0  0  0  0  0  0  0  0
   -3.2202   -7.8102    0.0000 O   0  0  0  0  0  0  0  0  0  0  0  0
  1  2  2  0  0  0  0
  1  6  1  0  0  0  0
  2  3  1  0  0  0  0
  3  4  2  0  0  0  0
  4  5  1  0  0  0  0
  5  6  2  0  0  0  0
  5 11  1  0  0  0  0
  6  7  1  0  0  0  0
  7  8  2  0  0  0  0
  8  9  1  0  0  0  0
  9 10  2  0  0  0  0
  9 11  1  0  0  0  0
  1 12  1  0  0  0  0
 13 14  1  0  0  0  0
 14 15  1  0  0  0  0
 14 17  1  0  0  0  0
 14 18  1  0  0  0  0
 15 16  2  0  0  0  0
  2 16  1  0  0  0  0
  3 17  1  0  0  0  0
 19 20  1  0  0  0  0
  4 19  1  0  0  0  0
  8 21  1  0  0  0  0
 22 23  1  0  0  0  0
 22 27  2  0  0  0  0
 23 24  2  0  0  0  0
 24 25  1  0  0  0  0
 24 29  1  0  0  0  0
 25 26  2  0  0  0  0
 25 28  1  0  0  0  0
 26 27  1  0  0  0  0
 30 29  1  1  0  0  0
 30 31  1  0  0  0  0
 30 35  1  0  0  0  0
 31 32  1  0  0  0  0
 31 40  1  6  0  0  0
 32 33  1  0  0  0  0
 32 39  1  1  0  0  0
 33 34  1  0  0  0  0
 33 38  1  6  0  0  0
 34 35  1  0  0  0  0
 34 36  1  1  0  0  0
 36 37  1  0  0  0  0
  7 27  1  0  0  0  0
M  END
> <score_Kier3>
0.511714

$$$$
suggested molecule #450
 MOE2019            2D

 40 44  0  0  1  0  0  0  0  0999 V2000
    3.4992   -1.2833    0.0000 C   0  0  0  0  0  0  0  0  0  1  0  0
    4.9992   -1.2762    0.0000 C   0  0  0  0  0  0  0  0  0  2  0  0
    5.7430    0.0263    0.0000 C   0  0  0  0  0  0  0  0  0  3  0  0
    4.9869    1.3218    0.0000 C   0  0  0  0  0  0  0  0  0  4  0  0
    3.4870    1.3147    0.0000 C   0  0  0  0  0  0  0  0  0  5  0  0
    2.7431    0.0122    0.0000 C   0  0  0  0  0  0  0  0  0  6  0  0
    1.2431    0.0051    0.0000 C   0  0  0  0  0  0  0  0  0  7  0  0
    0.4870    1.3006    0.0000 C   0  0  0  0  0  0  0  0  0  8  0  0
    1.2309    2.6032    0.0000 C   0  0  0  0  0  0  0  0  0  9  0  0
    0.4748    3.8987    0.0000 O   0  0  0  0  0  0  0  0  0 10  0  0
    2.7309    2.6102    0.0000 O   0  0  0  0  0  0  0  0  0 11  0  0
    2.9041   -2.3253    0.0000 H   0  0  0  0  0  0  0  0  0  0  0  0
    9.3017   -2.0060    0.0000 C   0  0  0  0  0  0  0  0  0  0  0  0
    7.9991   -1.2621    0.0000 C   0  0  0  0  0  0  0  0  0  0  0  0
    7.2552   -2.5647    0.0000 C   0  0  0  0  0  0  0  0  0  0  0  0
    5.7553   -2.5717    0.0000 C   0  0  0  0  0  0  0  0  0  0  0  0
    7.2430    0.0334    0.0000 O   0  0  0  0  0  0  0  0  0  0  0  0
    9.2946   -0.5060    0.0000 C   0  0  0  0  0  0  0  0  0  0  0  0
    5.7308    2.6244    0.0000 O   0  0  0  0  0  0  0  0  0  0  0  0
    4.9747    3.9198    0.0000 C   0  0  0  0  0  0  0  0  0  0  0  0
   -0.7130    1.2950    0.0000 H   0  0  0  0  0  0  0  0  0  0  0  0
   -1.0008   -1.3045    0.0000 C   0  0  0  0  0  0  0  0  0  0  0  0
   -1.7447   -2.6070    0.0000 C   0  0  0  0  0  0  0  0  0  0  0  0
   -0.9886   -3.9025    0.0000 C   0  0  0  0  0  0  0  0  0  0  0  0
    0.5114   -3.8955    0.0000 C   0  0  0  0  0  0  0  0  0  0  0  0
    1.2553   -2.5929    0.0000 C   0  0  0  0  0  0  0  0  0  0  0  0
    0.4992   -1.2974    0.0000 C   0  0  0  0  0  0  0  0  0  0  0  0
    1.2675   -5.1910    0.0000 O   0  0  0  0  0  0  0  0  0  0  0  0
   -1.7324   -5.2051    0.0000 O   0  0  0  0  0  0  0  0  0  0  0  0
   -3.2324   -5.2121    0.0000 C   0  0  1  0  0  0  0  0  0  0  0  0
   -3.9763   -6.5147    0.0000 C   0  0  1  0  0  0  0  0  0  0  0  0
   -5.4763   -6.5217    0.0000 C   0  0  2  0  0  0  0  0  0  0  0  0
   -6.2324   -5.2262    0.0000 C   0  0  1  0  0  0  0  0  0  0  0  0
   -5.4885   -3.9237    0.0000 C   0  0  2  0  0  0  0  0  0  0  0  0
   -3.9885   -3.9166    0.0000 O   0  0  0  0  0  0  0  0  0  0  0  0
   -6.2446   -2.6282    0.0000 C   0  0  0  0  0  0  0  0  0  0  0  0
   -7.7446   -2.6352    0.0000 O   0  0  0  0  0  0  0  0  0  0  0  0
   -7.7324   -5.2333    0.0000 O   0  0  0  0  0  0  0  0  0  0  0  0
   -6.2202   -7.8243    0.0000 O   0  0  0  0  0  0  0  0  0  0  0  0
   -3.2202   -7.8102    0.0000 O   0  0  0  0  0  0  0  0  0  0  0  0
  1  2  2  0  0  0  0
  1  6  1  0  0  0  0
  2  3  1  0  0  0  0
  3  4  2  0  0  0  0
  4  5  1  0  0  0  0
  5  6  2  0  0  0  0
  5 11  1  0  0  0  0
  6  7  1  0  0  0  0
  7  8  2  0  0  0  0
  8  9  1  0  0  0  0
  9 10  2  0  0  0  0
  9 11  1  0  0  0  0
  1 12  1  0  0  0  0
 13 14  1  0  0  0  0
 14 15  1  0  0  0  0
 14 17  1  0  0  0  0
 14 18  1  0  0  0  0
 15 16  2  0  0  0  0
  2 16  1  0  0  0  0
  3 17  1  0  0  0  0
 19 20  1  0  0  0  0
  4 19  1  0  0  0  0
  8 21  1  0  0  0  0
 22 23  1  0  0  0  0
 22 27  2  0  0  0  0
 23 24  2  0  0  0  0
 24 25  1  0  0  0  0
 24 29  1  0  0  0  0
 25 26  2  0  0  0  0
 25 28  1  0  0  0  0
 26 27  1  0  0  0  0
 30 29  1  1  0  0  0
 30 31  1  0  0  0  0
 30 35  1  0  0  0  0
 31 32  1  0  0  0  0
 31 40  1  6  0  0  0
 32 33  1  0  0  0  0
 32 39  1  1  0  0  0
 33 34  1  0  0  0  0
 33 38  1  6  0  0  0
 34 35  1  0  0  0  0
 34 36  1  1  0  0  0
 36 37  1  0  0  0  0
  7 27  1  0  0  0  0
M  END
> <score_KierA1>
0.517746

$$$$
suggested molecule #451
 MOE2019            2D

 40 44  0  0  1  0  0  0  0  0999 V2000
    3.4992   -1.2833    0.0000 C   0  0  0  0  0  0  0  0  0  1  0  0
    4.9992   -1.2762    0.0000 C   0  0  0  0  0  0  0  0  0  2  0  0
    5.7430    0.0263    0.0000 C   0  0  0  0  0  0  0  0  0  3  0  0
    4.9869    1.3218    0.0000 C   0  0  0  0  0  0  0  0  0  4  0  0
    3.4870    1.3147    0.0000 C   0  0  0  0  0  0  0  0  0  5  0  0
    2.7431    0.0122    0.0000 C   0  0  0  0  0  0  0  0  0  6  0  0
    1.2431    0.0051    0.0000 C   0  0  0  0  0  0  0  0  0  7  0  0
    0.4870    1.3006    0.0000 C   0  0  0  0  0  0  0  0  0  8  0  0
    1.2309    2.6032    0.0000 C   0  0  0  0  0  0  0  0  0  9  0  0
    0.4748    3.8987    0.0000 O   0  0  0  0  0  0  0  0  0 10  0  0
    2.7309    2.6102    0.0000 O   0  0  0  0  0  0  0  0  0 11  0  0
    2.9041   -2.3253    0.0000 H   0  0  0  0  0  0  0  0  0  0  0  0
    9.3017   -2.0060    0.0000 C   0  0  0  0  0  0  0  0  0  0  0  0
    7.9991   -1.2621    0.0000 C   0  0  0  0  0  0  0  0  0  0  0  0
    7.2552   -2.5647    0.0000 C   0  0  0  0  0  0  0  0  0  0  0  0
    5.7553   -2.5717    0.0000 C   0  0  0  0  0  0  0  0  0  0  0  0
    7.2430    0.0334    0.0000 O   0  0  0  0  0  0  0  0  0  0  0  0
    9.2946   -0.5060    0.0000 C   0  0  0  0  0  0  0  0  0  0  0  0
    5.7308    2.6244    0.0000 O   0  0  0  0  0  0  0  0  0  0  0  0
    4.9747    3.9198    0.0000 C   0  0  0  0  0  0  0  0  0  0  0  0
   -0.7130    1.2950    0.0000 H   0  0  0  0  0  0  0  0  0  0  0  0
   -1.0008   -1.3045    0.0000 C   0  0  0  0  0  0  0  0  0  0  0  0
   -1.7447   -2.6070    0.0000 C   0  0  0  0  0  0  0  0  0  0  0  0
   -0.9886   -3.9025    0.0000 C   0  0  0  0  0  0  0  0  0  0  0  0
    0.5114   -3.8955    0.0000 C   0  0  0  0  0  0  0  0  0  0  0  0
    1.2553   -2.5929    0.0000 C   0  0  0  0  0  0  0  0  0  0  0  0
    0.4992   -1.2974    0.0000 C   0  0  0  0  0  0  0  0  0  0  0  0
    1.2675   -5.1910    0.0000 O   0  0  0  0  0  0  0  0  0  0  0  0
   -1.7324   -5.2051    0.0000 O   0  0  0  0  0  0  0  0  0  0  0  0
   -3.2324   -5.2121    0.0000 C   0  0  1  0  0  0  0  0  0  0  0  0
   -3.9763   -6.5147    0.0000 C   0  0  1  0  0  0  0  0  0  0  0  0
   -5.4763   -6.5217    0.0000 C   0  0  2  0  0  0  0  0  0  0  0  0
   -6.2324   -5.2262    0.0000 C   0  0  1  0  0  0  0  0  0  0  0  0
   -5.4885   -3.9237    0.0000 C   0  0  2  0  0  0  0  0  0  0  0  0
   -3.9885   -3.9166    0.0000 O   0  0  0  0  0  0  0  0  0  0  0  0
   -6.2446   -2.6282    0.0000 C   0  0  0  0  0  0  0  0  0  0  0  0
   -7.7446   -2.6352    0.0000 O   0  0  0  0  0  0  0  0  0  0  0  0
   -7.7324   -5.2333    0.0000 O   0  0  0  0  0  0  0  0  0  0  0  0
   -6.2202   -7.8243    0.0000 O   0  0  0  0  0  0  0  0  0  0  0  0
   -3.2202   -7.8102    0.0000 O   0  0  0  0  0  0  0  0  0  0  0  0
  1  2  2  0  0  0  0
  1  6  1  0  0  0  0
  2  3  1  0  0  0  0
  3  4  2  0  0  0  0
  4  5  1  0  0  0  0
  5  6  2  0  0  0  0
  5 11  1  0  0  0  0
  6  7  1  0  0  0  0
  7  8  2  0  0  0  0
  8  9  1  0  0  0  0
  9 10  2  0  0  0  0
  9 11  1  0  0  0  0
  1 12  1  0  0  0  0
 13 14  1  0  0  0  0
 14 15  1  0  0  0  0
 14 17  1  0  0  0  0
 14 18  1  0  0  0  0
 15 16  2  0  0  0  0
  2 16  1  0  0  0  0
  3 17  1  0  0  0  0
 19 20  1  0  0  0  0
  4 19  1  0  0  0  0
  8 21  1  0  0  0  0
 22 23  1  0  0  0  0
 22 27  2  0  0  0  0
 23 24  2  0  0  0  0
 24 25  1  0  0  0  0
 24 29  1  0  0  0  0
 25 26  2  0  0  0  0
 25 28  1  0  0  0  0
 26 27  1  0  0  0  0
 30 29  1  1  0  0  0
 30 31  1  0  0  0  0
 30 35  1  0  0  0  0
 31 32  1  0  0  0  0
 31 40  1  6  0  0  0
 32 33  1  0  0  0  0
 32 39  1  1  0  0  0
 33 34  1  0  0  0  0
 33 38  1  6  0  0  0
 34 35  1  0  0  0  0
 34 36  1  1  0  0  0
 36 37  1  0  0  0  0
  7 27  1  0  0  0  0
M  END
> <score_KierA2>
0.516808

$$$$
suggested molecule #452
 MOE2019            2D

 40 44  0  0  1  0  0  0  0  0999 V2000
    3.4992   -1.2833    0.0000 C   0  0  0  0  0  0  0  0  0  1  0  0
    4.9992   -1.2762    0.0000 C   0  0  0  0  0  0  0  0  0  2  0  0
    5.7430    0.0263    0.0000 C   0  0  0  0  0  0  0  0  0  3  0  0
    4.9869    1.3218    0.0000 C   0  0  0  0  0  0  0  0  0  4  0  0
    3.4870    1.3147    0.0000 C   0  0  0  0  0  0  0  0  0  5  0  0
    2.7431    0.0122    0.0000 C   0  0  0  0  0  0  0  0  0  6  0  0
    1.2431    0.0051    0.0000 C   0  0  0  0  0  0  0  0  0  7  0  0
    0.4870    1.3006    0.0000 C   0  0  0  0  0  0  0  0  0  8  0  0
    1.2309    2.6032    0.0000 C   0  0  0  0  0  0  0  0  0  9  0  0
    0.4748    3.8987    0.0000 O   0  0  0  0  0  0  0  0  0 10  0  0
    2.7309    2.6102    0.0000 O   0  0  0  0  0  0  0  0  0 11  0  0
    2.9041   -2.3253    0.0000 H   0  0  0  0  0  0  0  0  0  0  0  0
    9.3017   -2.0060    0.0000 C   0  0  0  0  0  0  0  0  0  0  0  0
    7.9991   -1.2621    0.0000 C   0  0  0  0  0  0  0  0  0  0  0  0
    7.2552   -2.5647    0.0000 C   0  0  0  0  0  0  0  0  0  0  0  0
    5.7553   -2.5717    0.0000 C   0  0  0  0  0  0  0  0  0  0  0  0
    7.2430    0.0334    0.0000 O   0  0  0  0  0  0  0  0  0  0  0  0
    9.2946   -0.5060    0.0000 C   0  0  0  0  0  0  0  0  0  0  0  0
    5.7308    2.6244    0.0000 O   0  0  0  0  0  0  0  0  0  0  0  0
    4.9747    3.9198    0.0000 C   0  0  0  0  0  0  0  0  0  0  0  0
   -0.7130    1.2950    0.0000 H   0  0  0  0  0  0  0  0  0  0  0  0
   -1.0008   -1.3045    0.0000 C   0  0  0  0  0  0  0  0  0  0  0  0
   -1.7447   -2.6070    0.0000 C   0  0  0  0  0  0  0  0  0  0  0  0
   -0.9886   -3.9025    0.0000 C   0  0  0  0  0  0  0  0  0  0  0  0
    0.5114   -3.8955    0.0000 C   0  0  0  0  0  0  0  0  0  0  0  0
    1.2553   -2.5929    0.0000 C   0  0  0  0  0  0  0  0  0  0  0  0
    0.4992   -1.2974    0.0000 C   0  0  0  0  0  0  0  0  0  0  0  0
    1.2675   -5.1910    0.0000 O   0  0  0  0  0  0  0  0  0  0  0  0
   -1.7324   -5.2051    0.0000 O   0  0  0  0  0  0  0  0  0  0  0  0
   -3.2324   -5.2121    0.0000 C   0  0  1  0  0  0  0  0  0  0  0  0
   -3.9763   -6.5147    0.0000 C   0  0  1  0  0  0  0  0  0  0  0  0
   -5.4763   -6.5217    0.0000 C   0  0  2  0  0  0  0  0  0  0  0  0
   -6.2324   -5.2262    0.0000 C   0  0  1  0  0  0  0  0  0  0  0  0
   -5.4885   -3.9237    0.0000 C   0  0  2  0  0  0  0  0  0  0  0  0
   -3.9885   -3.9166    0.0000 O   0  0  0  0  0  0  0  0  0  0  0  0
   -6.2446   -2.6282    0.0000 C   0  0  0  0  0  0  0  0  0  0  0  0
   -7.7446   -2.6352    0.0000 O   0  0  0  0  0  0  0  0  0  0  0  0
   -7.7324   -5.2333    0.0000 O   0  0  0  0  0  0  0  0  0  0  0  0
   -6.2202   -7.8243    0.0000 O   0  0  0  0  0  0  0  0  0  0  0  0
   -3.2202   -7.8102    0.0000 O   0  0  0  0  0  0  0  0  0  0  0  0
  1  2  2  0  0  0  0
  1  6  1  0  0  0  0
  2  3  1  0  0  0  0
  3  4  2  0  0  0  0
  4  5  1  0  0  0  0
  5  6  2  0  0  0  0
  5 11  1  0  0  0  0
  6  7  1  0  0  0  0
  7  8  2  0  0  0  0
  8  9  1  0  0  0  0
  9 10  2  0  0  0  0
  9 11  1  0  0  0  0
  1 12  1  0  0  0  0
 13 14  1  0  0  0  0
 14 15  1  0  0  0  0
 14 17  1  0  0  0  0
 14 18  1  0  0  0  0
 15 16  2  0  0  0  0
  2 16  1  0  0  0  0
  3 17  1  0  0  0  0
 19 20  1  0  0  0  0
  4 19  1  0  0  0  0
  8 21  1  0  0  0  0
 22 23  1  0  0  0  0
 22 27  2  0  0  0  0
 23 24  2  0  0  0  0
 24 25  1  0  0  0  0
 24 29  1  0  0  0  0
 25 26  2  0  0  0  0
 25 28  1  0  0  0  0
 26 27  1  0  0  0  0
 30 29  1  1  0  0  0
 30 31  1  0  0  0  0
 30 35  1  0  0  0  0
 31 32  1  0  0  0  0
 31 40  1  6  0  0  0
 32 33  1  0  0  0  0
 32 39  1  1  0  0  0
 33 34  1  0  0  0  0
 33 38  1  6  0  0  0
 34 35  1  0  0  0  0
 34 36  1  1  0  0  0
 36 37  1  0  0  0  0
  7 27  1  0  0  0  0
M  END
> <score_KierA3>
0.512425

$$$$
suggested molecule #453
 MOE2019            2D

 40 44  0  0  1  0  0  0  0  0999 V2000
    3.4992   -1.2833    0.0000 C   0  0  0  0  0  0  0  0  0  1  0  0
    4.9992   -1.2762    0.0000 C   0  0  0  0  0  0  0  0  0  2  0  0
    5.7430    0.0263    0.0000 C   0  0  0  0  0  0  0  0  0  3  0  0
    4.9869    1.3218    0.0000 C   0  0  0  0  0  0  0  0  0  4  0  0
    3.4870    1.3147    0.0000 C   0  0  0  0  0  0  0  0  0  5  0  0
    2.7431    0.0122    0.0000 C   0  0  0  0  0  0  0  0  0  6  0  0
    1.2431    0.0051    0.0000 C   0  0  0  0  0  0  0  0  0  7  0  0
    0.4870    1.3006    0.0000 C   0  0  0  0  0  0  0  0  0  8  0  0
    1.2309    2.6032    0.0000 C   0  0  0  0  0  0  0  0  0  9  0  0
    0.4748    3.8987    0.0000 O   0  0  0  0  0  0  0  0  0 10  0  0
    2.7309    2.6102    0.0000 O   0  0  0  0  0  0  0  0  0 11  0  0
    2.9041   -2.3253    0.0000 H   0  0  0  0  0  0  0  0  0  0  0  0
    9.3017   -2.0060    0.0000 C   0  0  0  0  0  0  0  0  0  0  0  0
    7.9991   -1.2621    0.0000 C   0  0  0  0  0  0  0  0  0  0  0  0
    7.2552   -2.5647    0.0000 C   0  0  0  0  0  0  0  0  0  0  0  0
    5.7553   -2.5717    0.0000 C   0  0  0  0  0  0  0  0  0  0  0  0
    7.2430    0.0334    0.0000 O   0  0  0  0  0  0  0  0  0  0  0  0
    9.2946   -0.5060    0.0000 C   0  0  0  0  0  0  0  0  0  0  0  0
    5.7308    2.6244    0.0000 O   0  0  0  0  0  0  0  0  0  0  0  0
    4.9747    3.9198    0.0000 C   0  0  0  0  0  0  0  0  0  0  0  0
   -0.7130    1.2950    0.0000 H   0  0  0  0  0  0  0  0  0  0  0  0
   -1.0008   -1.3045    0.0000 C   0  0  0  0  0  0  0  0  0  0  0  0
   -1.7447   -2.6070    0.0000 C   0  0  0  0  0  0  0  0  0  0  0  0
   -0.9886   -3.9025    0.0000 C   0  0  0  0  0  0  0  0  0  0  0  0
    0.5114   -3.8955    0.0000 C   0  0  0  0  0  0  0  0  0  0  0  0
    1.2553   -2.5929    0.0000 C   0  0  0  0  0  0  0  0  0  0  0  0
    0.4992   -1.2974    0.0000 C   0  0  0  0  0  0  0  0  0  0  0  0
    1.2675   -5.1910    0.0000 O   0  0  0  0  0  0  0  0  0  0  0  0
   -1.7324   -5.2051    0.0000 O   0  0  0  0  0  0  0  0  0  0  0  0
   -3.2324   -5.2121    0.0000 C   0  0  1  0  0  0  0  0  0  0  0  0
   -3.9763   -6.5147    0.0000 C   0  0  1  0  0  0  0  0  0  0  0  0
   -5.4763   -6.5217    0.0000 C   0  0  2  0  0  0  0  0  0  0  0  0
   -6.2324   -5.2262    0.0000 C   0  0  1  0  0  0  0  0  0  0  0  0
   -5.4885   -3.9237    0.0000 C   0  0  2  0  0  0  0  0  0  0  0  0
   -3.9885   -3.9166    0.0000 O   0  0  0  0  0  0  0  0  0  0  0  0
   -6.2446   -2.6282    0.0000 C   0  0  0  0  0  0  0  0  0  0  0  0
   -7.7446   -2.6352    0.0000 O   0  0  0  0  0  0  0  0  0  0  0  0
   -7.7324   -5.2333    0.0000 O   0  0  0  0  0  0  0  0  0  0  0  0
   -6.2202   -7.8243    0.0000 O   0  0  0  0  0  0  0  0  0  0  0  0
   -3.2202   -7.8102    0.0000 O   0  0  0  0  0  0  0  0  0  0  0  0
  1  2  2  0  0  0  0
  1  6  1  0  0  0  0
  2  3  1  0  0  0  0
  3  4  2  0  0  0  0
  4  5  1  0  0  0  0
  5  6  2  0  0  0  0
  5 11  1  0  0  0  0
  6  7  1  0  0  0  0
  7  8  2  0  0  0  0
  8  9  1  0  0  0  0
  9 10  2  0  0  0  0
  9 11  1  0  0  0  0
  1 12  1  0  0  0  0
 13 14  1  0  0  0  0
 14 15  1  0  0  0  0
 14 17  1  0  0  0  0
 14 18  1  0  0  0  0
 15 16  2  0  0  0  0
  2 16  1  0  0  0  0
  3 17  1  0  0  0  0
 19 20  1  0  0  0  0
  4 19  1  0  0  0  0
  8 21  1  0  0  0  0
 22 23  1  0  0  0  0
 22 27  2  0  0  0  0
 23 24  2  0  0  0  0
 24 25  1  0  0  0  0
 24 29  1  0  0  0  0
 25 26  2  0  0  0  0
 25 28  1  0  0  0  0
 26 27  1  0  0  0  0
 30 29  1  1  0  0  0
 30 31  1  0  0  0  0
 30 35  1  0  0  0  0
 31 32  1  0  0  0  0
 31 40  1  6  0  0  0
 32 33  1  0  0  0  0
 32 39  1  1  0  0  0
 33 34  1  0  0  0  0
 33 38  1  6  0  0  0
 34 35  1  0  0  0  0
 34 36  1  1  0  0  0
 36 37  1  0  0  0  0
  7 27  1  0  0  0  0
M  END
> <score_KierFlex>
0.516559

$$$$
suggested molecule #454
 MOE2019            2D

 29 32  0  0  0  0  0  0  0  0999 V2000
    3.4992   -1.2833    0.0000 C   0  0  0  0  0  0  0  0  0  1  0  0
    4.9992   -1.2762    0.0000 C   0  0  0  0  0  0  0  0  0  2  0  0
    5.7430    0.0263    0.0000 C   0  0  0  0  0  0  0  0  0  3  0  0
    4.9869    1.3218    0.0000 C   0  0  0  0  0  0  0  0  0  4  0  0
    3.4870    1.3147    0.0000 C   0  0  0  0  0  0  0  0  0  5  0  0
    2.7431    0.0122    0.0000 C   0  0  0  0  0  0  0  0  0  6  0  0
    1.2431    0.0051    0.0000 C   0  0  0  0  0  0  0  0  0  7  0  0
    0.4870    1.3006    0.0000 C   0  0  0  0  0  0  0  0  0  8  0  0
    1.2309    2.6032    0.0000 C   0  0  0  0  0  0  0  0  0  9  0  0
    0.4748    3.8987    0.0000 O   0  0  0  0  0  0  0  0  0 10  0  0
    2.7309    2.6102    0.0000 O   0  0  0  0  0  0  0  0  0 11  0  0
    2.9041   -2.3253    0.0000 H   0  0  0  0  0  0  0  0  0  0  0  0
    9.3017   -2.0060    0.0000 C   0  0  0  0  0  0  0  0  0  0  0  0
    7.9991   -1.2621    0.0000 C   0  0  0  0  0  0  0  0  0  0  0  0
    7.2552   -2.5647    0.0000 C   0  0  0  0  0  0  0  0  0  0  0  0
    5.7553   -2.5717    0.0000 C   0  0  0  0  0  0  0  0  0  0  0  0
    7.2430    0.0334    0.0000 O   0  0  0  0  0  0  0  0  0  0  0  0
    9.2946   -0.5060    0.0000 C   0  0  0  0  0  0  0  0  0  0  0  0
    5.7308    2.6244    0.0000 O   0  0  0  0  0  0  0  0  0  0  0  0
    4.9747    3.9198    0.0000 C   0  0  0  0  0  0  0  0  0  0  0  0
   -0.7130    1.2950    0.0000 H   0  0  0  0  0  0  0  0  0  0  0  0
   -3.2324   -5.2121    0.0000 C   0  0  0  0  0  0  0  0  0  0  0  0
   -1.7324   -5.2051    0.0000 O   0  0  0  0  0  0  0  0  0  0  0  0
   -0.9886   -3.9025    0.0000 C   0  0  0  0  0  0  0  0  0  0  0  0
    0.5114   -3.8955    0.0000 C   0  0  0  0  0  0  0  0  0  0  0  0
    1.2553   -2.5929    0.0000 C   0  0  0  0  0  0  0  0  0  0  0  0
    0.4992   -1.2974    0.0000 C   0  0  0  0  0  0  0  0  0  0  0  0
   -1.0008   -1.3045    0.0000 C   0  0  0  0  0  0  0  0  0  0  0  0
   -1.7447   -2.6070    0.0000 C   0  0  0  0  0  0  0  0  0  0  0  0
  1  2  1  0  0  0  0
  1  6  2  0  0  0  0
  2  3  2  0  0  0  0
  3  4  1  0  0  0  0
  4  5  2  0  0  0  0
  5  6  1  0  0  0  0
  5 11  1  0  0  0  0
  6  7  1  0  0  0  0
  7  8  2  0  0  0  0
  8  9  1  0  0  0  0
  9 10  2  0  0  0  0
  9 11  1  0  0  0  0
  1 12  1  0  0  0  0
 13 14  1  0  0  0  0
 14 15  1  0  0  0  0
 14 17  1  0  0  0  0
 14 18  1  0  0  0  0
 15 16  2  0  0  0  0
  2 16  1  0  0  0  0
  3 17  1  0  0  0  0
 19 20  1  0  0  0  0
  4 19  1  0  0  0  0
  8 21  1  0  0  0  0
 22 23  1  0  0  0  0
 23 24  1  0  0  0  0
 24 25  1  0  0  0  0
 24 29  2  0  0  0  0
 25 26  2  0  0  0  0
 26 27  1  0  0  0  0
 27 28  2  0  0  0  0
 28 29  1  0  0  0  0
  7 27  1  0  0  0  0
M  END
> <score_Kier3>
0.511576

$$$$
suggested molecule #455
 MOE2019            2D

 29 32  0  0  0  0  0  0  0  0999 V2000
    3.4992   -1.2833    0.0000 C   0  0  0  0  0  0  0  0  0  1  0  0
    4.9992   -1.2762    0.0000 C   0  0  0  0  0  0  0  0  0  2  0  0
    5.7430    0.0263    0.0000 C   0  0  0  0  0  0  0  0  0  3  0  0
    4.9869    1.3218    0.0000 C   0  0  0  0  0  0  0  0  0  4  0  0
    3.4870    1.3147    0.0000 C   0  0  0  0  0  0  0  0  0  5  0  0
    2.7431    0.0122    0.0000 C   0  0  0  0  0  0  0  0  0  6  0  0
    1.2431    0.0051    0.0000 C   0  0  0  0  0  0  0  0  0  7  0  0
    0.4870    1.3006    0.0000 C   0  0  0  0  0  0  0  0  0  8  0  0
    1.2309    2.6032    0.0000 C   0  0  0  0  0  0  0  0  0  9  0  0
    0.4748    3.8987    0.0000 O   0  0  0  0  0  0  0  0  0 10  0  0
    2.7309    2.6102    0.0000 O   0  0  0  0  0  0  0  0  0 11  0  0
    2.9041   -2.3253    0.0000 H   0  0  0  0  0  0  0  0  0  0  0  0
    9.3017   -2.0060    0.0000 C   0  0  0  0  0  0  0  0  0  0  0  0
    7.9991   -1.2621    0.0000 C   0  0  0  0  0  0  0  0  0  0  0  0
    7.2552   -2.5647    0.0000 C   0  0  0  0  0  0  0  0  0  0  0  0
    5.7553   -2.5717    0.0000 C   0  0  0  0  0  0  0  0  0  0  0  0
    7.2430    0.0334    0.0000 O   0  0  0  0  0  0  0  0  0  0  0  0
    9.2946   -0.5060    0.0000 C   0  0  0  0  0  0  0  0  0  0  0  0
    5.7308    2.6244    0.0000 O   0  0  0  0  0  0  0  0  0  0  0  0
    4.9747    3.9198    0.0000 C   0  0  0  0  0  0  0  0  0  0  0  0
   -0.7130    1.2950    0.0000 H   0  0  0  0  0  0  0  0  0  0  0  0
   -3.2324   -5.2121    0.0000 C   0  0  0  0  0  0  0  0  0  0  0  0
   -1.7324   -5.2051    0.0000 O   0  0  0  0  0  0  0  0  0  0  0  0
   -0.9886   -3.9025    0.0000 C   0  0  0  0  0  0  0  0  0  0  0  0
    0.5114   -3.8955    0.0000 C   0  0  0  0  0  0  0  0  0  0  0  0
    1.2553   -2.5929    0.0000 C   0  0  0  0  0  0  0  0  0  0  0  0
    0.4992   -1.2974    0.0000 C   0  0  0  0  0  0  0  0  0  0  0  0
   -1.0008   -1.3045    0.0000 C   0  0  0  0  0  0  0  0  0  0  0  0
   -1.7447   -2.6070    0.0000 C   0  0  0  0  0  0  0  0  0  0  0  0
  1  2  1  0  0  0  0
  1  6  2  0  0  0  0
  2  3  2  0  0  0  0
  3  4  1  0  0  0  0
  4  5  2  0  0  0  0
  5  6  1  0  0  0  0
  5 11  1  0  0  0  0
  6  7  1  0  0  0  0
  7  8  2  0  0  0  0
  8  9  1  0  0  0  0
  9 10  2  0  0  0  0
  9 11  1  0  0  0  0
  1 12  1  0  0  0  0
 13 14  1  0  0  0  0
 14 15  1  0  0  0  0
 14 17  1  0  0  0  0
 14 18  1  0  0  0  0
 15 16  2  0  0  0  0
  2 16  1  0  0  0  0
  3 17  1  0  0  0  0
 19 20  1  0  0  0  0
  4 19  1  0  0  0  0
  8 21  1  0  0  0  0
 22 23  1  0  0  0  0
 23 24  1  0  0  0  0
 24 25  1  0  0  0  0
 24 29  2  0  0  0  0
 25 26  2  0  0  0  0
 26 27  1  0  0  0  0
 27 28  2  0  0  0  0
 28 29  1  0  0  0  0
  7 27  1  0  0  0  0
M  END
> <score_KierA3>
0.51229

$$$$
suggested molecule #456
 MOE2019            2D

 29 32  0  0  0  0  0  0  0  0999 V2000
    3.4992   -1.2833    0.0000 C   0  0  0  0  0  0  0  0  0  1  0  0
    4.9992   -1.2762    0.0000 C   0  0  0  0  0  0  0  0  0  2  0  0
    5.7430    0.0263    0.0000 C   0  0  0  0  0  0  0  0  0  3  0  0
    4.9869    1.3218    0.0000 C   0  0  0  0  0  0  0  0  0  4  0  0
    3.4870    1.3147    0.0000 C   0  0  0  0  0  0  0  0  0  5  0  0
    2.7431    0.0122    0.0000 C   0  0  0  0  0  0  0  0  0  6  0  0
    1.2431    0.0051    0.0000 C   0  0  0  0  0  0  0  0  0  7  0  0
    0.4870    1.3006    0.0000 C   0  0  0  0  0  0  0  0  0  8  0  0
    1.2309    2.6032    0.0000 C   0  0  0  0  0  0  0  0  0  9  0  0
    0.4748    3.8987    0.0000 O   0  0  0  0  0  0  0  0  0 10  0  0
    2.7309    2.6102    0.0000 O   0  0  0  0  0  0  0  0  0 11  0  0
    2.9041   -2.3253    0.0000 H   0  0  0  0  0  0  0  0  0  0  0  0
    9.3017   -2.0060    0.0000 C   0  0  0  0  0  0  0  0  0  0  0  0
    7.9991   -1.2621    0.0000 C   0  0  0  0  0  0  0  0  0  0  0  0
    7.2552   -2.5647    0.0000 C   0  0  0  0  0  0  0  0  0  0  0  0
    5.7553   -2.5717    0.0000 C   0  0  0  0  0  0  0  0  0  0  0  0
    7.2430    0.0334    0.0000 O   0  0  0  0  0  0  0  0  0  0  0  0
    9.2946   -0.5060    0.0000 C   0  0  0  0  0  0  0  0  0  0  0  0
    5.7308    2.6244    0.0000 O   0  0  0  0  0  0  0  0  0  0  0  0
    4.9747    3.9198    0.0000 C   0  0  0  0  0  0  0  0  0  0  0  0
   -0.7130    1.2950    0.0000 H   0  0  0  0  0  0  0  0  0  0  0  0
   -3.2324   -5.2121    0.0000 C   0  0  0  0  0  0  0  0  0  0  0  0
   -1.7324   -5.2051    0.0000 O   0  0  0  0  0  0  0  0  0  0  0  0
   -0.9886   -3.9025    0.0000 C   0  0  0  0  0  0  0  0  0  0  0  0
    0.5114   -3.8955    0.0000 C   0  0  0  0  0  0  0  0  0  0  0  0
    1.2553   -2.5929    0.0000 C   0  0  0  0  0  0  0  0  0  0  0  0
    0.4992   -1.2974    0.0000 C   0  0  0  0  0  0  0  0  0  0  0  0
   -1.0008   -1.3045    0.0000 C   0  0  0  0  0  0  0  0  0  0  0  0
   -1.7447   -2.6070    0.0000 C   0  0  0  0  0  0  0  0  0  0  0  0
  1  2  1  0  0  0  0
  1  6  2  0  0  0  0
  2  3  2  0  0  0  0
  3  4  1  0  0  0  0
  4  5  2  0  0  0  0
  5  6  1  0  0  0  0
  5 11  1  0  0  0  0
  6  7  1  0  0  0  0
  7  8  2  0  0  0  0
  8  9  1  0  0  0  0
  9 10  2  0  0  0  0
  9 11  1  0  0  0  0
  1 12  1  0  0  0  0
 13 14  1  0  0  0  0
 14 15  1  0  0  0  0
 14 17  1  0  0  0  0
 14 18  1  0  0  0  0
 15 16  2  0  0  0  0
  2 16  1  0  0  0  0
  3 17  1  0  0  0  0
 19 20  1  0  0  0  0
  4 19  1  0  0  0  0
  8 21  1  0  0  0  0
 22 23  1  0  0  0  0
 23 24  1  0  0  0  0
 24 25  1  0  0  0  0
 24 29  2  0  0  0  0
 25 26  2  0  0  0  0
 26 27  1  0  0  0  0
 27 28  2  0  0  0  0
 28 29  1  0  0  0  0
  7 27  1  0  0  0  0
M  END
> <score_KierFlex>
0.516311

$$$$
suggested molecule #457
 MOE2019            2D

 28 31  0  0  0  0  0  0  0  0999 V2000
    3.4992   -1.2833    0.0000 C   0  0  0  0  0  0  0  0  0  1  0  0
    4.9992   -1.2762    0.0000 C   0  0  0  0  0  0  0  0  0  2  0  0
    5.7430    0.0263    0.0000 C   0  0  0  0  0  0  0  0  0  3  0  0
    4.9869    1.3218    0.0000 C   0  0  0  0  0  0  0  0  0  4  0  0
    3.4870    1.3147    0.0000 C   0  0  0  0  0  0  0  0  0  5  0  0
    2.7431    0.0122    0.0000 C   0  0  0  0  0  0  0  0  0  6  0  0
    1.2431    0.0051    0.0000 C   0  0  0  0  0  0  0  0  0  7  0  0
    0.4870    1.3006    0.0000 C   0  0  0  0  0  0  0  0  0  8  0  0
    1.2309    2.6032    0.0000 C   0  0  0  0  0  0  0  0  0  9  0  0
    0.4748    3.8987    0.0000 O   0  0  0  0  0  0  0  0  0 10  0  0
    2.7309    2.6102    0.0000 O   0  0  0  0  0  0  0  0  0 11  0  0
    2.9041   -2.3253    0.0000 H   0  0  0  0  0  0  0  0  0  0  0  0
    9.2946   -0.5060    0.0000 C   0  0  0  0  0  0  0  0  0  0  0  0
    7.9991   -1.2621    0.0000 C   0  0  0  0  0  0  0  0  0  0  0  0
    7.2552   -2.5647    0.0000 C   0  0  0  0  0  0  0  0  0  0  0  0
    5.7553   -2.5717    0.0000 C   0  0  0  0  0  0  0  0  0  0  0  0
    7.2430    0.0334    0.0000 O   0  0  0  0  0  0  0  0  0  0  0  0
    9.3017   -2.0060    0.0000 C   0  0  0  0  0  0  0  0  0  0  0  0
    5.7308    2.6244    0.0000 O   0  0  0  0  0  0  0  0  0  0  0  0
    4.9747    3.9198    0.0000 C   0  0  0  0  0  0  0  0  0  0  0  0
   -0.7130    1.2950    0.0000 H   0  0  0  0  0  0  0  0  0  0  0  0
    0.5114   -3.8955    0.0000 C   0  0  0  0  0  0  0  0  0  0  0  0
   -0.9886   -3.9025    0.0000 C   0  0  0  0  0  0  0  0  0  0  0  0
   -1.7447   -2.6070    0.0000 C   0  0  0  0  0  0  0  0  0  0  0  0
   -1.0008   -1.3045    0.0000 C   0  0  0  0  0  0  0  0  0  0  0  0
    0.4992   -1.2974    0.0000 C   0  0  0  0  0  0  0  0  0  0  0  0
    1.2553   -2.5929    0.0000 C   0  0  0  0  0  0  0  0  0  0  0  0
   -1.7569   -0.0090    0.0000 O   0  0  0  0  0  0  0  0  0  0  0  0
  1  2  1  0  0  0  0
  1  6  2  0  0  0  0
  2  3  2  0  0  0  0
  3  4  1  0  0  0  0
  4  5  2  0  0  0  0
  5  6  1  0  0  0  0
  5 11  1  0  0  0  0
  6  7  1  0  0  0  0
  7  8  2  0  0  0  0
  8  9  1  0  0  0  0
  9 10  2  0  0  0  0
  9 11  1  0  0  0  0
  1 12  1  0  0  0  0
 13 14  1  0  0  0  0
 14 15  1  0  0  0  0
 14 17  1  0  0  0  0
 14 18  1  0  0  0  0
 15 16  2  0  0  0  0
  2 16  1  0  0  0  0
  3 17  1  0  0  0  0
 19 20  1  0  0  0  0
  4 19  1  0  0  0  0
  8 21  1  0  0  0  0
 22 23  1  0  0  0  0
 22 27  2  0  0  0  0
 23 24  2  0  0  0  0
 24 25  1  0  0  0  0
 25 26  2  0  0  0  0
 25 28  1  0  0  0  0
 26 27  1  0  0  0  0
  7 26  1  0  0  0  0
M  END
> <score_Kier1>
0.517773

$$$$
suggested molecule #458
 MOE2019            2D

 28 31  0  0  0  0  0  0  0  0999 V2000
    3.4992   -1.2833    0.0000 C   0  0  0  0  0  0  0  0  0  1  0  0
    4.9992   -1.2762    0.0000 C   0  0  0  0  0  0  0  0  0  2  0  0
    5.7430    0.0263    0.0000 C   0  0  0  0  0  0  0  0  0  3  0  0
    4.9869    1.3218    0.0000 C   0  0  0  0  0  0  0  0  0  4  0  0
    3.4870    1.3147    0.0000 C   0  0  0  0  0  0  0  0  0  5  0  0
    2.7431    0.0122    0.0000 C   0  0  0  0  0  0  0  0  0  6  0  0
    1.2431    0.0051    0.0000 C   0  0  0  0  0  0  0  0  0  7  0  0
    0.4870    1.3006    0.0000 C   0  0  0  0  0  0  0  0  0  8  0  0
    1.2309    2.6032    0.0000 C   0  0  0  0  0  0  0  0  0  9  0  0
    0.4748    3.8987    0.0000 O   0  0  0  0  0  0  0  0  0 10  0  0
    2.7309    2.6102    0.0000 O   0  0  0  0  0  0  0  0  0 11  0  0
    2.9041   -2.3253    0.0000 H   0  0  0  0  0  0  0  0  0  0  0  0
    9.2946   -0.5060    0.0000 C   0  0  0  0  0  0  0  0  0  0  0  0
    7.9991   -1.2621    0.0000 C   0  0  0  0  0  0  0  0  0  0  0  0
    7.2552   -2.5647    0.0000 C   0  0  0  0  0  0  0  0  0  0  0  0
    5.7553   -2.5717    0.0000 C   0  0  0  0  0  0  0  0  0  0  0  0
    7.2430    0.0334    0.0000 O   0  0  0  0  0  0  0  0  0  0  0  0
    9.3017   -2.0060    0.0000 C   0  0  0  0  0  0  0  0  0  0  0  0
    5.7308    2.6244    0.0000 O   0  0  0  0  0  0  0  0  0  0  0  0
    4.9747    3.9198    0.0000 C   0  0  0  0  0  0  0  0  0  0  0  0
   -0.7130    1.2950    0.0000 H   0  0  0  0  0  0  0  0  0  0  0  0
    0.5114   -3.8955    0.0000 C   0  0  0  0  0  0  0  0  0  0  0  0
   -0.9886   -3.9025    0.0000 C   0  0  0  0  0  0  0  0  0  0  0  0
   -1.7447   -2.6070    0.0000 C   0  0  0  0  0  0  0  0  0  0  0  0
   -1.0008   -1.3045    0.0000 C   0  0  0  0  0  0  0  0  0  0  0  0
    0.4992   -1.2974    0.0000 C   0  0  0  0  0  0  0  0  0  0  0  0
    1.2553   -2.5929    0.0000 C   0  0  0  0  0  0  0  0  0  0  0  0
   -1.7569   -0.0090    0.0000 O   0  0  0  0  0  0  0  0  0  0  0  0
  1  2  1  0  0  0  0
  1  6  2  0  0  0  0
  2  3  2  0  0  0  0
  3  4  1  0  0  0  0
  4  5  2  0  0  0  0
  5  6  1  0  0  0  0
  5 11  1  0  0  0  0
  6  7  1  0  0  0  0
  7  8  2  0  0  0  0
  8  9  1  0  0  0  0
  9 10  2  0  0  0  0
  9 11  1  0  0  0  0
  1 12  1  0  0  0  0
 13 14  1  0  0  0  0
 14 15  1  0  0  0  0
 14 17  1  0  0  0  0
 14 18  1  0  0  0  0
 15 16  2  0  0  0  0
  2 16  1  0  0  0  0
  3 17  1  0  0  0  0
 19 20  1  0  0  0  0
  4 19  1  0  0  0  0
  8 21  1  0  0  0  0
 22 23  1  0  0  0  0
 22 27  2  0  0  0  0
 23 24  2  0  0  0  0
 24 25  1  0  0  0  0
 25 26  2  0  0  0  0
 25 28  1  0  0  0  0
 26 27  1  0  0  0  0
  7 26  1  0  0  0  0
M  END
> <score_Kier2>
0.516478

$$$$
suggested molecule #459
 MOE2019            2D

 28 31  0  0  0  0  0  0  0  0999 V2000
    3.4992   -1.2833    0.0000 C   0  0  0  0  0  0  0  0  0  1  0  0
    4.9992   -1.2762    0.0000 C   0  0  0  0  0  0  0  0  0  2  0  0
    5.7430    0.0263    0.0000 C   0  0  0  0  0  0  0  0  0  3  0  0
    4.9869    1.3218    0.0000 C   0  0  0  0  0  0  0  0  0  4  0  0
    3.4870    1.3147    0.0000 C   0  0  0  0  0  0  0  0  0  5  0  0
    2.7431    0.0122    0.0000 C   0  0  0  0  0  0  0  0  0  6  0  0
    1.2431    0.0051    0.0000 C   0  0  0  0  0  0  0  0  0  7  0  0
    0.4870    1.3006    0.0000 C   0  0  0  0  0  0  0  0  0  8  0  0
    1.2309    2.6032    0.0000 C   0  0  0  0  0  0  0  0  0  9  0  0
    0.4748    3.8987    0.0000 O   0  0  0  0  0  0  0  0  0 10  0  0
    2.7309    2.6102    0.0000 O   0  0  0  0  0  0  0  0  0 11  0  0
    2.9041   -2.3253    0.0000 H   0  0  0  0  0  0  0  0  0  0  0  0
    9.2946   -0.5060    0.0000 C   0  0  0  0  0  0  0  0  0  0  0  0
    7.9991   -1.2621    0.0000 C   0  0  0  0  0  0  0  0  0  0  0  0
    7.2552   -2.5647    0.0000 C   0  0  0  0  0  0  0  0  0  0  0  0
    5.7553   -2.5717    0.0000 C   0  0  0  0  0  0  0  0  0  0  0  0
    7.2430    0.0334    0.0000 O   0  0  0  0  0  0  0  0  0  0  0  0
    9.3017   -2.0060    0.0000 C   0  0  0  0  0  0  0  0  0  0  0  0
    5.7308    2.6244    0.0000 O   0  0  0  0  0  0  0  0  0  0  0  0
    4.9747    3.9198    0.0000 C   0  0  0  0  0  0  0  0  0  0  0  0
   -0.7130    1.2950    0.0000 H   0  0  0  0  0  0  0  0  0  0  0  0
    0.5114   -3.8955    0.0000 C   0  0  0  0  0  0  0  0  0  0  0  0
   -0.9886   -3.9025    0.0000 C   0  0  0  0  0  0  0  0  0  0  0  0
   -1.7447   -2.6070    0.0000 C   0  0  0  0  0  0  0  0  0  0  0  0
   -1.0008   -1.3045    0.0000 C   0  0  0  0  0  0  0  0  0  0  0  0
    0.4992   -1.2974    0.0000 C   0  0  0  0  0  0  0  0  0  0  0  0
    1.2553   -2.5929    0.0000 C   0  0  0  0  0  0  0  0  0  0  0  0
   -1.7569   -0.0090    0.0000 O   0  0  0  0  0  0  0  0  0  0  0  0
  1  2  1  0  0  0  0
  1  6  2  0  0  0  0
  2  3  2  0  0  0  0
  3  4  1  0  0  0  0
  4  5  2  0  0  0  0
  5  6  1  0  0  0  0
  5 11  1  0  0  0  0
  6  7  1  0  0  0  0
  7  8  2  0  0  0  0
  8  9  1  0  0  0  0
  9 10  2  0  0  0  0
  9 11  1  0  0  0  0
  1 12  1  0  0  0  0
 13 14  1  0  0  0  0
 14 15  1  0  0  0  0
 14 17  1  0  0  0  0
 14 18  1  0  0  0  0
 15 16  2  0  0  0  0
  2 16  1  0  0  0  0
  3 17  1  0  0  0  0
 19 20  1  0  0  0  0
  4 19  1  0  0  0  0
  8 21  1  0  0  0  0
 22 23  1  0  0  0  0
 22 27  2  0  0  0  0
 23 24  2  0  0  0  0
 24 25  1  0  0  0  0
 25 26  2  0  0  0  0
 25 28  1  0  0  0  0
 26 27  1  0  0  0  0
  7 26  1  0  0  0  0
M  END
> <score_Kier3>
0.511772

$$$$
suggested molecule #460
 MOE2019            2D

 28 31  0  0  0  0  0  0  0  0999 V2000
    3.4992   -1.2833    0.0000 C   0  0  0  0  0  0  0  0  0  1  0  0
    4.9992   -1.2762    0.0000 C   0  0  0  0  0  0  0  0  0  2  0  0
    5.7430    0.0263    0.0000 C   0  0  0  0  0  0  0  0  0  3  0  0
    4.9869    1.3218    0.0000 C   0  0  0  0  0  0  0  0  0  4  0  0
    3.4870    1.3147    0.0000 C   0  0  0  0  0  0  0  0  0  5  0  0
    2.7431    0.0122    0.0000 C   0  0  0  0  0  0  0  0  0  6  0  0
    1.2431    0.0051    0.0000 C   0  0  0  0  0  0  0  0  0  7  0  0
    0.4870    1.3006    0.0000 C   0  0  0  0  0  0  0  0  0  8  0  0
    1.2309    2.6032    0.0000 C   0  0  0  0  0  0  0  0  0  9  0  0
    0.4748    3.8987    0.0000 O   0  0  0  0  0  0  0  0  0 10  0  0
    2.7309    2.6102    0.0000 O   0  0  0  0  0  0  0  0  0 11  0  0
    2.9041   -2.3253    0.0000 H   0  0  0  0  0  0  0  0  0  0  0  0
    9.2946   -0.5060    0.0000 C   0  0  0  0  0  0  0  0  0  0  0  0
    7.9991   -1.2621    0.0000 C   0  0  0  0  0  0  0  0  0  0  0  0
    7.2552   -2.5647    0.0000 C   0  0  0  0  0  0  0  0  0  0  0  0
    5.7553   -2.5717    0.0000 C   0  0  0  0  0  0  0  0  0  0  0  0
    7.2430    0.0334    0.0000 O   0  0  0  0  0  0  0  0  0  0  0  0
    9.3017   -2.0060    0.0000 C   0  0  0  0  0  0  0  0  0  0  0  0
    5.7308    2.6244    0.0000 O   0  0  0  0  0  0  0  0  0  0  0  0
    4.9747    3.9198    0.0000 C   0  0  0  0  0  0  0  0  0  0  0  0
   -0.7130    1.2950    0.0000 H   0  0  0  0  0  0  0  0  0  0  0  0
    0.5114   -3.8955    0.0000 C   0  0  0  0  0  0  0  0  0  0  0  0
   -0.9886   -3.9025    0.0000 C   0  0  0  0  0  0  0  0  0  0  0  0
   -1.7447   -2.6070    0.0000 C   0  0  0  0  0  0  0  0  0  0  0  0
   -1.0008   -1.3045    0.0000 C   0  0  0  0  0  0  0  0  0  0  0  0
    0.4992   -1.2974    0.0000 C   0  0  0  0  0  0  0  0  0  0  0  0
    1.2553   -2.5929    0.0000 C   0  0  0  0  0  0  0  0  0  0  0  0
   -1.7569   -0.0090    0.0000 O   0  0  0  0  0  0  0  0  0  0  0  0
  1  2  1  0  0  0  0
  1  6  2  0  0  0  0
  2  3  2  0  0  0  0
  3  4  1  0  0  0  0
  4  5  2  0  0  0  0
  5  6  1  0  0  0  0
  5 11  1  0  0  0  0
  6  7  1  0  0  0  0
  7  8  2  0  0  0  0
  8  9  1  0  0  0  0
  9 10  2  0  0  0  0
  9 11  1  0  0  0  0
  1 12  1  0  0  0  0
 13 14  1  0  0  0  0
 14 15  1  0  0  0  0
 14 17  1  0  0  0  0
 14 18  1  0  0  0  0
 15 16  2  0  0  0  0
  2 16  1  0  0  0  0
  3 17  1  0  0  0  0
 19 20  1  0  0  0  0
  4 19  1  0  0  0  0
  8 21  1  0  0  0  0
 22 23  1  0  0  0  0
 22 27  2  0  0  0  0
 23 24  2  0  0  0  0
 24 25  1  0  0  0  0
 25 26  2  0  0  0  0
 25 28  1  0  0  0  0
 26 27  1  0  0  0  0
  7 26  1  0  0  0  0
M  END
> <score_KierA1>
0.517831

$$$$
suggested molecule #461
 MOE2019            2D

 28 31  0  0  0  0  0  0  0  0999 V2000
    3.4992   -1.2833    0.0000 C   0  0  0  0  0  0  0  0  0  1  0  0
    4.9992   -1.2762    0.0000 C   0  0  0  0  0  0  0  0  0  2  0  0
    5.7430    0.0263    0.0000 C   0  0  0  0  0  0  0  0  0  3  0  0
    4.9869    1.3218    0.0000 C   0  0  0  0  0  0  0  0  0  4  0  0
    3.4870    1.3147    0.0000 C   0  0  0  0  0  0  0  0  0  5  0  0
    2.7431    0.0122    0.0000 C   0  0  0  0  0  0  0  0  0  6  0  0
    1.2431    0.0051    0.0000 C   0  0  0  0  0  0  0  0  0  7  0  0
    0.4870    1.3006    0.0000 C   0  0  0  0  0  0  0  0  0  8  0  0
    1.2309    2.6032    0.0000 C   0  0  0  0  0  0  0  0  0  9  0  0
    0.4748    3.8987    0.0000 O   0  0  0  0  0  0  0  0  0 10  0  0
    2.7309    2.6102    0.0000 O   0  0  0  0  0  0  0  0  0 11  0  0
    2.9041   -2.3253    0.0000 H   0  0  0  0  0  0  0  0  0  0  0  0
    9.2946   -0.5060    0.0000 C   0  0  0  0  0  0  0  0  0  0  0  0
    7.9991   -1.2621    0.0000 C   0  0  0  0  0  0  0  0  0  0  0  0
    7.2552   -2.5647    0.0000 C   0  0  0  0  0  0  0  0  0  0  0  0
    5.7553   -2.5717    0.0000 C   0  0  0  0  0  0  0  0  0  0  0  0
    7.2430    0.0334    0.0000 O   0  0  0  0  0  0  0  0  0  0  0  0
    9.3017   -2.0060    0.0000 C   0  0  0  0  0  0  0  0  0  0  0  0
    5.7308    2.6244    0.0000 O   0  0  0  0  0  0  0  0  0  0  0  0
    4.9747    3.9198    0.0000 C   0  0  0  0  0  0  0  0  0  0  0  0
   -0.7130    1.2950    0.0000 H   0  0  0  0  0  0  0  0  0  0  0  0
    0.5114   -3.8955    0.0000 C   0  0  0  0  0  0  0  0  0  0  0  0
   -0.9886   -3.9025    0.0000 C   0  0  0  0  0  0  0  0  0  0  0  0
   -1.7447   -2.6070    0.0000 C   0  0  0  0  0  0  0  0  0  0  0  0
   -1.0008   -1.3045    0.0000 C   0  0  0  0  0  0  0  0  0  0  0  0
    0.4992   -1.2974    0.0000 C   0  0  0  0  0  0  0  0  0  0  0  0
    1.2553   -2.5929    0.0000 C   0  0  0  0  0  0  0  0  0  0  0  0
   -1.7569   -0.0090    0.0000 O   0  0  0  0  0  0  0  0  0  0  0  0
  1  2  1  0  0  0  0
  1  6  2  0  0  0  0
  2  3  2  0  0  0  0
  3  4  1  0  0  0  0
  4  5  2  0  0  0  0
  5  6  1  0  0  0  0
  5 11  1  0  0  0  0
  6  7  1  0  0  0  0
  7  8  2  0  0  0  0
  8  9  1  0  0  0  0
  9 10  2  0  0  0  0
  9 11  1  0  0  0  0
  1 12  1  0  0  0  0
 13 14  1  0  0  0  0
 14 15  1  0  0  0  0
 14 17  1  0  0  0  0
 14 18  1  0  0  0  0
 15 16  2  0  0  0  0
  2 16  1  0  0  0  0
  3 17  1  0  0  0  0
 19 20  1  0  0  0  0
  4 19  1  0  0  0  0
  8 21  1  0  0  0  0
 22 23  1  0  0  0  0
 22 27  2  0  0  0  0
 23 24  2  0  0  0  0
 24 25  1  0  0  0  0
 25 26  2  0  0  0  0
 25 28  1  0  0  0  0
 26 27  1  0  0  0  0
  7 26  1  0  0  0  0
M  END
> <score_KierA2>
0.516885

$$$$
suggested molecule #462
 MOE2019            2D

 28 31  0  0  0  0  0  0  0  0999 V2000
    3.4992   -1.2833    0.0000 C   0  0  0  0  0  0  0  0  0  1  0  0
    4.9992   -1.2762    0.0000 C   0  0  0  0  0  0  0  0  0  2  0  0
    5.7430    0.0263    0.0000 C   0  0  0  0  0  0  0  0  0  3  0  0
    4.9869    1.3218    0.0000 C   0  0  0  0  0  0  0  0  0  4  0  0
    3.4870    1.3147    0.0000 C   0  0  0  0  0  0  0  0  0  5  0  0
    2.7431    0.0122    0.0000 C   0  0  0  0  0  0  0  0  0  6  0  0
    1.2431    0.0051    0.0000 C   0  0  0  0  0  0  0  0  0  7  0  0
    0.4870    1.3006    0.0000 C   0  0  0  0  0  0  0  0  0  8  0  0
    1.2309    2.6032    0.0000 C   0  0  0  0  0  0  0  0  0  9  0  0
    0.4748    3.8987    0.0000 O   0  0  0  0  0  0  0  0  0 10  0  0
    2.7309    2.6102    0.0000 O   0  0  0  0  0  0  0  0  0 11  0  0
    2.9041   -2.3253    0.0000 H   0  0  0  0  0  0  0  0  0  0  0  0
    9.2946   -0.5060    0.0000 C   0  0  0  0  0  0  0  0  0  0  0  0
    7.9991   -1.2621    0.0000 C   0  0  0  0  0  0  0  0  0  0  0  0
    7.2552   -2.5647    0.0000 C   0  0  0  0  0  0  0  0  0  0  0  0
    5.7553   -2.5717    0.0000 C   0  0  0  0  0  0  0  0  0  0  0  0
    7.2430    0.0334    0.0000 O   0  0  0  0  0  0  0  0  0  0  0  0
    9.3017   -2.0060    0.0000 C   0  0  0  0  0  0  0  0  0  0  0  0
    5.7308    2.6244    0.0000 O   0  0  0  0  0  0  0  0  0  0  0  0
    4.9747    3.9198    0.0000 C   0  0  0  0  0  0  0  0  0  0  0  0
   -0.7130    1.2950    0.0000 H   0  0  0  0  0  0  0  0  0  0  0  0
    0.5114   -3.8955    0.0000 C   0  0  0  0  0  0  0  0  0  0  0  0
   -0.9886   -3.9025    0.0000 C   0  0  0  0  0  0  0  0  0  0  0  0
   -1.7447   -2.6070    0.0000 C   0  0  0  0  0  0  0  0  0  0  0  0
   -1.0008   -1.3045    0.0000 C   0  0  0  0  0  0  0  0  0  0  0  0
    0.4992   -1.2974    0.0000 C   0  0  0  0  0  0  0  0  0  0  0  0
    1.2553   -2.5929    0.0000 C   0  0  0  0  0  0  0  0  0  0  0  0
   -1.7569   -0.0090    0.0000 O   0  0  0  0  0  0  0  0  0  0  0  0
  1  2  1  0  0  0  0
  1  6  2  0  0  0  0
  2  3  2  0  0  0  0
  3  4  1  0  0  0  0
  4  5  2  0  0  0  0
  5  6  1  0  0  0  0
  5 11  1  0  0  0  0
  6  7  1  0  0  0  0
  7  8  2  0  0  0  0
  8  9  1  0  0  0  0
  9 10  2  0  0  0  0
  9 11  1  0  0  0  0
  1 12  1  0  0  0  0
 13 14  1  0  0  0  0
 14 15  1  0  0  0  0
 14 17  1  0  0  0  0
 14 18  1  0  0  0  0
 15 16  2  0  0  0  0
  2 16  1  0  0  0  0
  3 17  1  0  0  0  0
 19 20  1  0  0  0  0
  4 19  1  0  0  0  0
  8 21  1  0  0  0  0
 22 23  1  0  0  0  0
 22 27  2  0  0  0  0
 23 24  2  0  0  0  0
 24 25  1  0  0  0  0
 25 26  2  0  0  0  0
 25 28  1  0  0  0  0
 26 27  1  0  0  0  0
  7 26  1  0  0  0  0
M  END
> <score_KierA3>
0.512499

$$$$
suggested molecule #463
 MOE2019            2D

 28 31  0  0  0  0  0  0  0  0999 V2000
    3.4992   -1.2833    0.0000 C   0  0  0  0  0  0  0  0  0  1  0  0
    4.9992   -1.2762    0.0000 C   0  0  0  0  0  0  0  0  0  2  0  0
    5.7430    0.0263    0.0000 C   0  0  0  0  0  0  0  0  0  3  0  0
    4.9869    1.3218    0.0000 C   0  0  0  0  0  0  0  0  0  4  0  0
    3.4870    1.3147    0.0000 C   0  0  0  0  0  0  0  0  0  5  0  0
    2.7431    0.0122    0.0000 C   0  0  0  0  0  0  0  0  0  6  0  0
    1.2431    0.0051    0.0000 C   0  0  0  0  0  0  0  0  0  7  0  0
    0.4870    1.3006    0.0000 C   0  0  0  0  0  0  0  0  0  8  0  0
    1.2309    2.6032    0.0000 C   0  0  0  0  0  0  0  0  0  9  0  0
    0.4748    3.8987    0.0000 O   0  0  0  0  0  0  0  0  0 10  0  0
    2.7309    2.6102    0.0000 O   0  0  0  0  0  0  0  0  0 11  0  0
    2.9041   -2.3253    0.0000 H   0  0  0  0  0  0  0  0  0  0  0  0
    9.2946   -0.5060    0.0000 C   0  0  0  0  0  0  0  0  0  0  0  0
    7.9991   -1.2621    0.0000 C   0  0  0  0  0  0  0  0  0  0  0  0
    7.2552   -2.5647    0.0000 C   0  0  0  0  0  0  0  0  0  0  0  0
    5.7553   -2.5717    0.0000 C   0  0  0  0  0  0  0  0  0  0  0  0
    7.2430    0.0334    0.0000 O   0  0  0  0  0  0  0  0  0  0  0  0
    9.3017   -2.0060    0.0000 C   0  0  0  0  0  0  0  0  0  0  0  0
    5.7308    2.6244    0.0000 O   0  0  0  0  0  0  0  0  0  0  0  0
    4.9747    3.9198    0.0000 C   0  0  0  0  0  0  0  0  0  0  0  0
   -0.7130    1.2950    0.0000 H   0  0  0  0  0  0  0  0  0  0  0  0
    0.5114   -3.8955    0.0000 C   0  0  0  0  0  0  0  0  0  0  0  0
   -0.9886   -3.9025    0.0000 C   0  0  0  0  0  0  0  0  0  0  0  0
   -1.7447   -2.6070    0.0000 C   0  0  0  0  0  0  0  0  0  0  0  0
   -1.0008   -1.3045    0.0000 C   0  0  0  0  0  0  0  0  0  0  0  0
    0.4992   -1.2974    0.0000 C   0  0  0  0  0  0  0  0  0  0  0  0
    1.2553   -2.5929    0.0000 C   0  0  0  0  0  0  0  0  0  0  0  0
   -1.7569   -0.0090    0.0000 O   0  0  0  0  0  0  0  0  0  0  0  0
  1  2  1  0  0  0  0
  1  6  2  0  0  0  0
  2  3  2  0  0  0  0
  3  4  1  0  0  0  0
  4  5  2  0  0  0  0
  5  6  1  0  0  0  0
  5 11  1  0  0  0  0
  6  7  1  0  0  0  0
  7  8  2  0  0  0  0
  8  9  1  0  0  0  0
  9 10  2  0  0  0  0
  9 11  1  0  0  0  0
  1 12  1  0  0  0  0
 13 14  1  0  0  0  0
 14 15  1  0  0  0  0
 14 17  1  0  0  0  0
 14 18  1  0  0  0  0
 15 16  2  0  0  0  0
  2 16  1  0  0  0  0
  3 17  1  0  0  0  0
 19 20  1  0  0  0  0
  4 19  1  0  0  0  0
  8 21  1  0  0  0  0
 22 23  1  0  0  0  0
 22 27  2  0  0  0  0
 23 24  2  0  0  0  0
 24 25  1  0  0  0  0
 25 26  2  0  0  0  0
 25 28  1  0  0  0  0
 26 27  1  0  0  0  0
  7 26  1  0  0  0  0
M  END
> <score_KierFlex>
0.516655

$$$$
suggested molecule #464
 MOE2019            2D

 38 42  0  0  1  0  0  0  0  0999 V2000
    3.4992   -1.2833    0.0000 C   0  0  0  0  0  0  0  0  0  1  0  0
    4.9992   -1.2762    0.0000 C   0  0  0  0  0  0  0  0  0  2  0  0
    5.7430    0.0263    0.0000 C   0  0  0  0  0  0  0  0  0  3  0  0
    4.9869    1.3218    0.0000 C   0  0  0  0  0  0  0  0  0  4  0  0
    3.4870    1.3147    0.0000 C   0  0  0  0  0  0  0  0  0  5  0  0
    2.7431    0.0122    0.0000 C   0  0  0  0  0  0  0  0  0  6  0  0
    1.2431    0.0051    0.0000 C   0  0  0  0  0  0  0  0  0  7  0  0
    0.4870    1.3006    0.0000 C   0  0  0  0  0  0  0  0  0  8  0  0
    1.2309    2.6032    0.0000 C   0  0  0  0  0  0  0  0  0  9  0  0
    0.4748    3.8987    0.0000 O   0  0  0  0  0  0  0  0  0 10  0  0
    2.7309    2.6102    0.0000 O   0  0  0  0  0  0  0  0  0 11  0  0
    2.9041   -2.3253    0.0000 H   0  0  0  0  0  0  0  0  0  0  0  0
    9.2946   -0.5060    0.0000 C   0  0  0  0  0  0  0  0  0  0  0  0
    7.9991   -1.2621    0.0000 C   0  0  0  0  0  0  0  0  0  0  0  0
    7.2552   -2.5647    0.0000 C   0  0  0  0  0  0  0  0  0  0  0  0
    5.7553   -2.5717    0.0000 C   0  0  0  0  0  0  0  0  0  0  0  0
    7.2430    0.0334    0.0000 O   0  0  0  0  0  0  0  0  0  0  0  0
    9.3017   -2.0060    0.0000 C   0  0  0  0  0  0  0  0  0  0  0  0
    5.7308    2.6244    0.0000 O   0  0  0  0  0  0  0  0  0  0  0  0
    7.2308    2.6314    0.0000 C   0  0  0  0  0  0  0  0  0  0  0  0
   -0.7130    1.2950    0.0000 H   0  0  0  0  0  0  0  0  0  0  0  0
    0.4992   -1.2974    0.0000 C   0  0  0  0  0  0  0  0  0  0  0  0
   -1.0008   -1.3045    0.0000 C   0  0  0  0  0  0  0  0  0  0  0  0
   -1.7447   -2.6070    0.0000 C   0  0  0  0  0  0  0  0  0  0  0  0
   -0.9886   -3.9025    0.0000 C   0  0  0  0  0  0  0  0  0  0  0  0
    0.5114   -3.8955    0.0000 C   0  0  0  0  0  0  0  0  0  0  0  0
    1.2553   -2.5929    0.0000 C   0  0  0  0  0  0  0  0  0  0  0  0
   -1.7324   -5.2051    0.0000 O   0  0  0  0  0  0  0  0  0  0  0  0
   -3.2446   -2.6141    0.0000 O   0  0  0  0  0  0  0  0  0  0  0  0
   -4.0007   -1.3186    0.0000 C   0  0  1  0  0  0  0  0  0  0  0  0
   -5.5007   -1.3256    0.0000 C   0  0  1  0  0  0  0  0  0  0  0  0
   -6.2568   -0.0301    0.0000 C   0  0  2  0  0  0  0  0  0  0  0  0
   -5.5129    1.2724    0.0000 C   0  0  1  0  0  0  0  0  0  0  0  0
   -4.0130    1.2795    0.0000 C   0  0  0  0  0  0  0  0  0  0  0  0
   -3.2569   -0.0160    0.0000 O   0  0  0  0  0  0  0  0  0  0  0  0
   -6.2690    2.5679    0.0000 O   0  0  0  0  0  0  0  0  0  0  0  0
   -7.7568   -0.0372    0.0000 O   0  0  0  0  0  0  0  0  0  0  0  0
   -6.2446   -2.6282    0.0000 O   0  0  0  0  0  0  0  0  0  0  0  0
  1  2  2  0  0  0  0
  1  6  1  0  0  0  0
  2  3  1  0  0  0  0
  3  4  2  0  0  0  0
  4  5  1  0  0  0  0
  5  6  2  0  0  0  0
  5 11  1  0  0  0  0
  6  7  1  0  0  0  0
  7  8  2  0  0  0  0
  8  9  1  0  0  0  0
  9 10  2  0  0  0  0
  9 11  1  0  0  0  0
  1 12  1  0  0  0  0
 13 14  1  0  0  0  0
 14 15  1  0  0  0  0
 14 17  1  0  0  0  0
 14 18  1  0  0  0  0
 15 16  2  0  0  0  0
  2 16  1  0  0  0  0
  3 17  1  0  0  0  0
 19 20  1  0  0  0  0
  4 19  1  0  0  0  0
  8 21  1  0  0  0  0
 22 23  1  0  0  0  0
 22 27  2  0  0  0  0
 23 24  2  0  0  0  0
 24 25  1  0  0  0  0
 24 29  1  0  0  0  0
 25 26  2  0  0  0  0
 25 28  1  0  0  0  0
 26 27  1  0  0  0  0
 30 29  1  1  0  0  0
 30 31  1  0  0  0  0
 30 35  1  0  0  0  0
 31 32  1  0  0  0  0
 31 38  1  6  0  0  0
 32 33  1  0  0  0  0
 32 37  1  1  0  0  0
 33 34  1  0  0  0  0
 33 36  1  6  0  0  0
 34 35  1  0  0  0  0
  7 22  1  0  0  0  0
M  END
> <score_Kier1>
0.517703

$$$$
suggested molecule #465
 MOE2019            2D

 38 42  0  0  1  0  0  0  0  0999 V2000
    3.4992   -1.2833    0.0000 C   0  0  0  0  0  0  0  0  0  1  0  0
    4.9992   -1.2762    0.0000 C   0  0  0  0  0  0  0  0  0  2  0  0
    5.7430    0.0263    0.0000 C   0  0  0  0  0  0  0  0  0  3  0  0
    4.9869    1.3218    0.0000 C   0  0  0  0  0  0  0  0  0  4  0  0
    3.4870    1.3147    0.0000 C   0  0  0  0  0  0  0  0  0  5  0  0
    2.7431    0.0122    0.0000 C   0  0  0  0  0  0  0  0  0  6  0  0
    1.2431    0.0051    0.0000 C   0  0  0  0  0  0  0  0  0  7  0  0
    0.4870    1.3006    0.0000 C   0  0  0  0  0  0  0  0  0  8  0  0
    1.2309    2.6032    0.0000 C   0  0  0  0  0  0  0  0  0  9  0  0
    0.4748    3.8987    0.0000 O   0  0  0  0  0  0  0  0  0 10  0  0
    2.7309    2.6102    0.0000 O   0  0  0  0  0  0  0  0  0 11  0  0
    2.9041   -2.3253    0.0000 H   0  0  0  0  0  0  0  0  0  0  0  0
    9.2946   -0.5060    0.0000 C   0  0  0  0  0  0  0  0  0  0  0  0
    7.9991   -1.2621    0.0000 C   0  0  0  0  0  0  0  0  0  0  0  0
    7.2552   -2.5647    0.0000 C   0  0  0  0  0  0  0  0  0  0  0  0
    5.7553   -2.5717    0.0000 C   0  0  0  0  0  0  0  0  0  0  0  0
    7.2430    0.0334    0.0000 O   0  0  0  0  0  0  0  0  0  0  0  0
    9.3017   -2.0060    0.0000 C   0  0  0  0  0  0  0  0  0  0  0  0
    5.7308    2.6244    0.0000 O   0  0  0  0  0  0  0  0  0  0  0  0
    7.2308    2.6314    0.0000 C   0  0  0  0  0  0  0  0  0  0  0  0
   -0.7130    1.2950    0.0000 H   0  0  0  0  0  0  0  0  0  0  0  0
    0.4992   -1.2974    0.0000 C   0  0  0  0  0  0  0  0  0  0  0  0
   -1.0008   -1.3045    0.0000 C   0  0  0  0  0  0  0  0  0  0  0  0
   -1.7447   -2.6070    0.0000 C   0  0  0  0  0  0  0  0  0  0  0  0
   -0.9886   -3.9025    0.0000 C   0  0  0  0  0  0  0  0  0  0  0  0
    0.5114   -3.8955    0.0000 C   0  0  0  0  0  0  0  0  0  0  0  0
    1.2553   -2.5929    0.0000 C   0  0  0  0  0  0  0  0  0  0  0  0
   -1.7324   -5.2051    0.0000 O   0  0  0  0  0  0  0  0  0  0  0  0
   -3.2446   -2.6141    0.0000 O   0  0  0  0  0  0  0  0  0  0  0  0
   -4.0007   -1.3186    0.0000 C   0  0  1  0  0  0  0  0  0  0  0  0
   -5.5007   -1.3256    0.0000 C   0  0  1  0  0  0  0  0  0  0  0  0
   -6.2568   -0.0301    0.0000 C   0  0  2  0  0  0  0  0  0  0  0  0
   -5.5129    1.2724    0.0000 C   0  0  1  0  0  0  0  0  0  0  0  0
   -4.0130    1.2795    0.0000 C   0  0  0  0  0  0  0  0  0  0  0  0
   -3.2569   -0.0160    0.0000 O   0  0  0  0  0  0  0  0  0  0  0  0
   -6.2690    2.5679    0.0000 O   0  0  0  0  0  0  0  0  0  0  0  0
   -7.7568   -0.0372    0.0000 O   0  0  0  0  0  0  0  0  0  0  0  0
   -6.2446   -2.6282    0.0000 O   0  0  0  0  0  0  0  0  0  0  0  0
  1  2  2  0  0  0  0
  1  6  1  0  0  0  0
  2  3  1  0  0  0  0
  3  4  2  0  0  0  0
  4  5  1  0  0  0  0
  5  6  2  0  0  0  0
  5 11  1  0  0  0  0
  6  7  1  0  0  0  0
  7  8  2  0  0  0  0
  8  9  1  0  0  0  0
  9 10  2  0  0  0  0
  9 11  1  0  0  0  0
  1 12  1  0  0  0  0
 13 14  1  0  0  0  0
 14 15  1  0  0  0  0
 14 17  1  0  0  0  0
 14 18  1  0  0  0  0
 15 16  2  0  0  0  0
  2 16  1  0  0  0  0
  3 17  1  0  0  0  0
 19 20  1  0  0  0  0
  4 19  1  0  0  0  0
  8 21  1  0  0  0  0
 22 23  1  0  0  0  0
 22 27  2  0  0  0  0
 23 24  2  0  0  0  0
 24 25  1  0  0  0  0
 24 29  1  0  0  0  0
 25 26  2  0  0  0  0
 25 28  1  0  0  0  0
 26 27  1  0  0  0  0
 30 29  1  1  0  0  0
 30 31  1  0  0  0  0
 30 35  1  0  0  0  0
 31 32  1  0  0  0  0
 31 38  1  6  0  0  0
 32 33  1  0  0  0  0
 32 37  1  1  0  0  0
 33 34  1  0  0  0  0
 33 36  1  6  0  0  0
 34 35  1  0  0  0  0
  7 22  1  0  0  0  0
M  END
> <score_Kier3>
0.511717

$$$$
suggested molecule #466
 MOE2019            2D

 38 42  0  0  1  0  0  0  0  0999 V2000
    3.4992   -1.2833    0.0000 C   0  0  0  0  0  0  0  0  0  1  0  0
    4.9992   -1.2762    0.0000 C   0  0  0  0  0  0  0  0  0  2  0  0
    5.7430    0.0263    0.0000 C   0  0  0  0  0  0  0  0  0  3  0  0
    4.9869    1.3218    0.0000 C   0  0  0  0  0  0  0  0  0  4  0  0
    3.4870    1.3147    0.0000 C   0  0  0  0  0  0  0  0  0  5  0  0
    2.7431    0.0122    0.0000 C   0  0  0  0  0  0  0  0  0  6  0  0
    1.2431    0.0051    0.0000 C   0  0  0  0  0  0  0  0  0  7  0  0
    0.4870    1.3006    0.0000 C   0  0  0  0  0  0  0  0  0  8  0  0
    1.2309    2.6032    0.0000 C   0  0  0  0  0  0  0  0  0  9  0  0
    0.4748    3.8987    0.0000 O   0  0  0  0  0  0  0  0  0 10  0  0
    2.7309    2.6102    0.0000 O   0  0  0  0  0  0  0  0  0 11  0  0
    2.9041   -2.3253    0.0000 H   0  0  0  0  0  0  0  0  0  0  0  0
    9.2946   -0.5060    0.0000 C   0  0  0  0  0  0  0  0  0  0  0  0
    7.9991   -1.2621    0.0000 C   0  0  0  0  0  0  0  0  0  0  0  0
    7.2552   -2.5647    0.0000 C   0  0  0  0  0  0  0  0  0  0  0  0
    5.7553   -2.5717    0.0000 C   0  0  0  0  0  0  0  0  0  0  0  0
    7.2430    0.0334    0.0000 O   0  0  0  0  0  0  0  0  0  0  0  0
    9.3017   -2.0060    0.0000 C   0  0  0  0  0  0  0  0  0  0  0  0
    5.7308    2.6244    0.0000 O   0  0  0  0  0  0  0  0  0  0  0  0
    7.2308    2.6314    0.0000 C   0  0  0  0  0  0  0  0  0  0  0  0
   -0.7130    1.2950    0.0000 H   0  0  0  0  0  0  0  0  0  0  0  0
    0.4992   -1.2974    0.0000 C   0  0  0  0  0  0  0  0  0  0  0  0
   -1.0008   -1.3045    0.0000 C   0  0  0  0  0  0  0  0  0  0  0  0
   -1.7447   -2.6070    0.0000 C   0  0  0  0  0  0  0  0  0  0  0  0
   -0.9886   -3.9025    0.0000 C   0  0  0  0  0  0  0  0  0  0  0  0
    0.5114   -3.8955    0.0000 C   0  0  0  0  0  0  0  0  0  0  0  0
    1.2553   -2.5929    0.0000 C   0  0  0  0  0  0  0  0  0  0  0  0
   -1.7324   -5.2051    0.0000 O   0  0  0  0  0  0  0  0  0  0  0  0
   -3.2446   -2.6141    0.0000 O   0  0  0  0  0  0  0  0  0  0  0  0
   -4.0007   -1.3186    0.0000 C   0  0  1  0  0  0  0  0  0  0  0  0
   -5.5007   -1.3256    0.0000 C   0  0  1  0  0  0  0  0  0  0  0  0
   -6.2568   -0.0301    0.0000 C   0  0  2  0  0  0  0  0  0  0  0  0
   -5.5129    1.2724    0.0000 C   0  0  1  0  0  0  0  0  0  0  0  0
   -4.0130    1.2795    0.0000 C   0  0  0  0  0  0  0  0  0  0  0  0
   -3.2569   -0.0160    0.0000 O   0  0  0  0  0  0  0  0  0  0  0  0
   -6.2690    2.5679    0.0000 O   0  0  0  0  0  0  0  0  0  0  0  0
   -7.7568   -0.0372    0.0000 O   0  0  0  0  0  0  0  0  0  0  0  0
   -6.2446   -2.6282    0.0000 O   0  0  0  0  0  0  0  0  0  0  0  0
  1  2  2  0  0  0  0
  1  6  1  0  0  0  0
  2  3  1  0  0  0  0
  3  4  2  0  0  0  0
  4  5  1  0  0  0  0
  5  6  2  0  0  0  0
  5 11  1  0  0  0  0
  6  7  1  0  0  0  0
  7  8  2  0  0  0  0
  8  9  1  0  0  0  0
  9 10  2  0  0  0  0
  9 11  1  0  0  0  0
  1 12  1  0  0  0  0
 13 14  1  0  0  0  0
 14 15  1  0  0  0  0
 14 17  1  0  0  0  0
 14 18  1  0  0  0  0
 15 16  2  0  0  0  0
  2 16  1  0  0  0  0
  3 17  1  0  0  0  0
 19 20  1  0  0  0  0
  4 19  1  0  0  0  0
  8 21  1  0  0  0  0
 22 23  1  0  0  0  0
 22 27  2  0  0  0  0
 23 24  2  0  0  0  0
 24 25  1  0  0  0  0
 24 29  1  0  0  0  0
 25 26  2  0  0  0  0
 25 28  1  0  0  0  0
 26 27  1  0  0  0  0
 30 29  1  1  0  0  0
 30 31  1  0  0  0  0
 30 35  1  0  0  0  0
 31 32  1  0  0  0  0
 31 38  1  6  0  0  0
 32 33  1  0  0  0  0
 32 37  1  1  0  0  0
 33 34  1  0  0  0  0
 33 36  1  6  0  0  0
 34 35  1  0  0  0  0
  7 22  1  0  0  0  0
M  END
> <score_KierA1>
0.517746

$$$$
suggested molecule #467
 MOE2019            2D

 38 42  0  0  1  0  0  0  0  0999 V2000
    3.4992   -1.2833    0.0000 C   0  0  0  0  0  0  0  0  0  1  0  0
    4.9992   -1.2762    0.0000 C   0  0  0  0  0  0  0  0  0  2  0  0
    5.7430    0.0263    0.0000 C   0  0  0  0  0  0  0  0  0  3  0  0
    4.9869    1.3218    0.0000 C   0  0  0  0  0  0  0  0  0  4  0  0
    3.4870    1.3147    0.0000 C   0  0  0  0  0  0  0  0  0  5  0  0
    2.7431    0.0122    0.0000 C   0  0  0  0  0  0  0  0  0  6  0  0
    1.2431    0.0051    0.0000 C   0  0  0  0  0  0  0  0  0  7  0  0
    0.4870    1.3006    0.0000 C   0  0  0  0  0  0  0  0  0  8  0  0
    1.2309    2.6032    0.0000 C   0  0  0  0  0  0  0  0  0  9  0  0
    0.4748    3.8987    0.0000 O   0  0  0  0  0  0  0  0  0 10  0  0
    2.7309    2.6102    0.0000 O   0  0  0  0  0  0  0  0  0 11  0  0
    2.9041   -2.3253    0.0000 H   0  0  0  0  0  0  0  0  0  0  0  0
    9.2946   -0.5060    0.0000 C   0  0  0  0  0  0  0  0  0  0  0  0
    7.9991   -1.2621    0.0000 C   0  0  0  0  0  0  0  0  0  0  0  0
    7.2552   -2.5647    0.0000 C   0  0  0  0  0  0  0  0  0  0  0  0
    5.7553   -2.5717    0.0000 C   0  0  0  0  0  0  0  0  0  0  0  0
    7.2430    0.0334    0.0000 O   0  0  0  0  0  0  0  0  0  0  0  0
    9.3017   -2.0060    0.0000 C   0  0  0  0  0  0  0  0  0  0  0  0
    5.7308    2.6244    0.0000 O   0  0  0  0  0  0  0  0  0  0  0  0
    7.2308    2.6314    0.0000 C   0  0  0  0  0  0  0  0  0  0  0  0
   -0.7130    1.2950    0.0000 H   0  0  0  0  0  0  0  0  0  0  0  0
    0.4992   -1.2974    0.0000 C   0  0  0  0  0  0  0  0  0  0  0  0
   -1.0008   -1.3045    0.0000 C   0  0  0  0  0  0  0  0  0  0  0  0
   -1.7447   -2.6070    0.0000 C   0  0  0  0  0  0  0  0  0  0  0  0
   -0.9886   -3.9025    0.0000 C   0  0  0  0  0  0  0  0  0  0  0  0
    0.5114   -3.8955    0.0000 C   0  0  0  0  0  0  0  0  0  0  0  0
    1.2553   -2.5929    0.0000 C   0  0  0  0  0  0  0  0  0  0  0  0
   -1.7324   -5.2051    0.0000 O   0  0  0  0  0  0  0  0  0  0  0  0
   -3.2446   -2.6141    0.0000 O   0  0  0  0  0  0  0  0  0  0  0  0
   -4.0007   -1.3186    0.0000 C   0  0  1  0  0  0  0  0  0  0  0  0
   -5.5007   -1.3256    0.0000 C   0  0  1  0  0  0  0  0  0  0  0  0
   -6.2568   -0.0301    0.0000 C   0  0  2  0  0  0  0  0  0  0  0  0
   -5.5129    1.2724    0.0000 C   0  0  1  0  0  0  0  0  0  0  0  0
   -4.0130    1.2795    0.0000 C   0  0  0  0  0  0  0  0  0  0  0  0
   -3.2569   -0.0160    0.0000 O   0  0  0  0  0  0  0  0  0  0  0  0
   -6.2690    2.5679    0.0000 O   0  0  0  0  0  0  0  0  0  0  0  0
   -7.7568   -0.0372    0.0000 O   0  0  0  0  0  0  0  0  0  0  0  0
   -6.2446   -2.6282    0.0000 O   0  0  0  0  0  0  0  0  0  0  0  0
  1  2  2  0  0  0  0
  1  6  1  0  0  0  0
  2  3  1  0  0  0  0
  3  4  2  0  0  0  0
  4  5  1  0  0  0  0
  5  6  2  0  0  0  0
  5 11  1  0  0  0  0
  6  7  1  0  0  0  0
  7  8  2  0  0  0  0
  8  9  1  0  0  0  0
  9 10  2  0  0  0  0
  9 11  1  0  0  0  0
  1 12  1  0  0  0  0
 13 14  1  0  0  0  0
 14 15  1  0  0  0  0
 14 17  1  0  0  0  0
 14 18  1  0  0  0  0
 15 16  2  0  0  0  0
  2 16  1  0  0  0  0
  3 17  1  0  0  0  0
 19 20  1  0  0  0  0
  4 19  1  0  0  0  0
  8 21  1  0  0  0  0
 22 23  1  0  0  0  0
 22 27  2  0  0  0  0
 23 24  2  0  0  0  0
 24 25  1  0  0  0  0
 24 29  1  0  0  0  0
 25 26  2  0  0  0  0
 25 28  1  0  0  0  0
 26 27  1  0  0  0  0
 30 29  1  1  0  0  0
 30 31  1  0  0  0  0
 30 35  1  0  0  0  0
 31 32  1  0  0  0  0
 31 38  1  6  0  0  0
 32 33  1  0  0  0  0
 32 37  1  1  0  0  0
 33 34  1  0  0  0  0
 33 36  1  6  0  0  0
 34 35  1  0  0  0  0
  7 22  1  0  0  0  0
M  END
> <score_KierA2>
0.516808

$$$$
suggested molecule #468
 MOE2019            2D

 38 42  0  0  1  0  0  0  0  0999 V2000
    3.4992   -1.2833    0.0000 C   0  0  0  0  0  0  0  0  0  1  0  0
    4.9992   -1.2762    0.0000 C   0  0  0  0  0  0  0  0  0  2  0  0
    5.7430    0.0263    0.0000 C   0  0  0  0  0  0  0  0  0  3  0  0
    4.9869    1.3218    0.0000 C   0  0  0  0  0  0  0  0  0  4  0  0
    3.4870    1.3147    0.0000 C   0  0  0  0  0  0  0  0  0  5  0  0
    2.7431    0.0122    0.0000 C   0  0  0  0  0  0  0  0  0  6  0  0
    1.2431    0.0051    0.0000 C   0  0  0  0  0  0  0  0  0  7  0  0
    0.4870    1.3006    0.0000 C   0  0  0  0  0  0  0  0  0  8  0  0
    1.2309    2.6032    0.0000 C   0  0  0  0  0  0  0  0  0  9  0  0
    0.4748    3.8987    0.0000 O   0  0  0  0  0  0  0  0  0 10  0  0
    2.7309    2.6102    0.0000 O   0  0  0  0  0  0  0  0  0 11  0  0
    2.9041   -2.3253    0.0000 H   0  0  0  0  0  0  0  0  0  0  0  0
    9.2946   -0.5060    0.0000 C   0  0  0  0  0  0  0  0  0  0  0  0
    7.9991   -1.2621    0.0000 C   0  0  0  0  0  0  0  0  0  0  0  0
    7.2552   -2.5647    0.0000 C   0  0  0  0  0  0  0  0  0  0  0  0
    5.7553   -2.5717    0.0000 C   0  0  0  0  0  0  0  0  0  0  0  0
    7.2430    0.0334    0.0000 O   0  0  0  0  0  0  0  0  0  0  0  0
    9.3017   -2.0060    0.0000 C   0  0  0  0  0  0  0  0  0  0  0  0
    5.7308    2.6244    0.0000 O   0  0  0  0  0  0  0  0  0  0  0  0
    7.2308    2.6314    0.0000 C   0  0  0  0  0  0  0  0  0  0  0  0
   -0.7130    1.2950    0.0000 H   0  0  0  0  0  0  0  0  0  0  0  0
    0.4992   -1.2974    0.0000 C   0  0  0  0  0  0  0  0  0  0  0  0
   -1.0008   -1.3045    0.0000 C   0  0  0  0  0  0  0  0  0  0  0  0
   -1.7447   -2.6070    0.0000 C   0  0  0  0  0  0  0  0  0  0  0  0
   -0.9886   -3.9025    0.0000 C   0  0  0  0  0  0  0  0  0  0  0  0
    0.5114   -3.8955    0.0000 C   0  0  0  0  0  0  0  0  0  0  0  0
    1.2553   -2.5929    0.0000 C   0  0  0  0  0  0  0  0  0  0  0  0
   -1.7324   -5.2051    0.0000 O   0  0  0  0  0  0  0  0  0  0  0  0
   -3.2446   -2.6141    0.0000 O   0  0  0  0  0  0  0  0  0  0  0  0
   -4.0007   -1.3186    0.0000 C   0  0  1  0  0  0  0  0  0  0  0  0
   -5.5007   -1.3256    0.0000 C   0  0  1  0  0  0  0  0  0  0  0  0
   -6.2568   -0.0301    0.0000 C   0  0  2  0  0  0  0  0  0  0  0  0
   -5.5129    1.2724    0.0000 C   0  0  1  0  0  0  0  0  0  0  0  0
   -4.0130    1.2795    0.0000 C   0  0  0  0  0  0  0  0  0  0  0  0
   -3.2569   -0.0160    0.0000 O   0  0  0  0  0  0  0  0  0  0  0  0
   -6.2690    2.5679    0.0000 O   0  0  0  0  0  0  0  0  0  0  0  0
   -7.7568   -0.0372    0.0000 O   0  0  0  0  0  0  0  0  0  0  0  0
   -6.2446   -2.6282    0.0000 O   0  0  0  0  0  0  0  0  0  0  0  0
  1  2  2  0  0  0  0
  1  6  1  0  0  0  0
  2  3  1  0  0  0  0
  3  4  2  0  0  0  0
  4  5  1  0  0  0  0
  5  6  2  0  0  0  0
  5 11  1  0  0  0  0
  6  7  1  0  0  0  0
  7  8  2  0  0  0  0
  8  9  1  0  0  0  0
  9 10  2  0  0  0  0
  9 11  1  0  0  0  0
  1 12  1  0  0  0  0
 13 14  1  0  0  0  0
 14 15  1  0  0  0  0
 14 17  1  0  0  0  0
 14 18  1  0  0  0  0
 15 16  2  0  0  0  0
  2 16  1  0  0  0  0
  3 17  1  0  0  0  0
 19 20  1  0  0  0  0
  4 19  1  0  0  0  0
  8 21  1  0  0  0  0
 22 23  1  0  0  0  0
 22 27  2  0  0  0  0
 23 24  2  0  0  0  0
 24 25  1  0  0  0  0
 24 29  1  0  0  0  0
 25 26  2  0  0  0  0
 25 28  1  0  0  0  0
 26 27  1  0  0  0  0
 30 29  1  1  0  0  0
 30 31  1  0  0  0  0
 30 35  1  0  0  0  0
 31 32  1  0  0  0  0
 31 38  1  6  0  0  0
 32 33  1  0  0  0  0
 32 37  1  1  0  0  0
 33 34  1  0  0  0  0
 33 36  1  6  0  0  0
 34 35  1  0  0  0  0
  7 22  1  0  0  0  0
M  END
> <score_KierA3>
0.512427

$$$$
suggested molecule #469
 MOE2019            2D

 38 42  0  0  1  0  0  0  0  0999 V2000
    3.4992   -1.2833    0.0000 C   0  0  0  0  0  0  0  0  0  1  0  0
    4.9992   -1.2762    0.0000 C   0  0  0  0  0  0  0  0  0  2  0  0
    5.7430    0.0263    0.0000 C   0  0  0  0  0  0  0  0  0  3  0  0
    4.9869    1.3218    0.0000 C   0  0  0  0  0  0  0  0  0  4  0  0
    3.4870    1.3147    0.0000 C   0  0  0  0  0  0  0  0  0  5  0  0
    2.7431    0.0122    0.0000 C   0  0  0  0  0  0  0  0  0  6  0  0
    1.2431    0.0051    0.0000 C   0  0  0  0  0  0  0  0  0  7  0  0
    0.4870    1.3006    0.0000 C   0  0  0  0  0  0  0  0  0  8  0  0
    1.2309    2.6032    0.0000 C   0  0  0  0  0  0  0  0  0  9  0  0
    0.4748    3.8987    0.0000 O   0  0  0  0  0  0  0  0  0 10  0  0
    2.7309    2.6102    0.0000 O   0  0  0  0  0  0  0  0  0 11  0  0
    2.9041   -2.3253    0.0000 H   0  0  0  0  0  0  0  0  0  0  0  0
    9.2946   -0.5060    0.0000 C   0  0  0  0  0  0  0  0  0  0  0  0
    7.9991   -1.2621    0.0000 C   0  0  0  0  0  0  0  0  0  0  0  0
    7.2552   -2.5647    0.0000 C   0  0  0  0  0  0  0  0  0  0  0  0
    5.7553   -2.5717    0.0000 C   0  0  0  0  0  0  0  0  0  0  0  0
    7.2430    0.0334    0.0000 O   0  0  0  0  0  0  0  0  0  0  0  0
    9.3017   -2.0060    0.0000 C   0  0  0  0  0  0  0  0  0  0  0  0
    5.7308    2.6244    0.0000 O   0  0  0  0  0  0  0  0  0  0  0  0
    7.2308    2.6314    0.0000 C   0  0  0  0  0  0  0  0  0  0  0  0
   -0.7130    1.2950    0.0000 H   0  0  0  0  0  0  0  0  0  0  0  0
    0.4992   -1.2974    0.0000 C   0  0  0  0  0  0  0  0  0  0  0  0
   -1.0008   -1.3045    0.0000 C   0  0  0  0  0  0  0  0  0  0  0  0
   -1.7447   -2.6070    0.0000 C   0  0  0  0  0  0  0  0  0  0  0  0
   -0.9886   -3.9025    0.0000 C   0  0  0  0  0  0  0  0  0  0  0  0
    0.5114   -3.8955    0.0000 C   0  0  0  0  0  0  0  0  0  0  0  0
    1.2553   -2.5929    0.0000 C   0  0  0  0  0  0  0  0  0  0  0  0
   -1.7324   -5.2051    0.0000 O   0  0  0  0  0  0  0  0  0  0  0  0
   -3.2446   -2.6141    0.0000 O   0  0  0  0  0  0  0  0  0  0  0  0
   -4.0007   -1.3186    0.0000 C   0  0  1  0  0  0  0  0  0  0  0  0
   -5.5007   -1.3256    0.0000 C   0  0  1  0  0  0  0  0  0  0  0  0
   -6.2568   -0.0301    0.0000 C   0  0  2  0  0  0  0  0  0  0  0  0
   -5.5129    1.2724    0.0000 C   0  0  1  0  0  0  0  0  0  0  0  0
   -4.0130    1.2795    0.0000 C   0  0  0  0  0  0  0  0  0  0  0  0
   -3.2569   -0.0160    0.0000 O   0  0  0  0  0  0  0  0  0  0  0  0
   -6.2690    2.5679    0.0000 O   0  0  0  0  0  0  0  0  0  0  0  0
   -7.7568   -0.0372    0.0000 O   0  0  0  0  0  0  0  0  0  0  0  0
   -6.2446   -2.6282    0.0000 O   0  0  0  0  0  0  0  0  0  0  0  0
  1  2  2  0  0  0  0
  1  6  1  0  0  0  0
  2  3  1  0  0  0  0
  3  4  2  0  0  0  0
  4  5  1  0  0  0  0
  5  6  2  0  0  0  0
  5 11  1  0  0  0  0
  6  7  1  0  0  0  0
  7  8  2  0  0  0  0
  8  9  1  0  0  0  0
  9 10  2  0  0  0  0
  9 11  1  0  0  0  0
  1 12  1  0  0  0  0
 13 14  1  0  0  0  0
 14 15  1  0  0  0  0
 14 17  1  0  0  0  0
 14 18  1  0  0  0  0
 15 16  2  0  0  0  0
  2 16  1  0  0  0  0
  3 17  1  0  0  0  0
 19 20  1  0  0  0  0
  4 19  1  0  0  0  0
  8 21  1  0  0  0  0
 22 23  1  0  0  0  0
 22 27  2  0  0  0  0
 23 24  2  0  0  0  0
 24 25  1  0  0  0  0
 24 29  1  0  0  0  0
 25 26  2  0  0  0  0
 25 28  1  0  0  0  0
 26 27  1  0  0  0  0
 30 29  1  1  0  0  0
 30 31  1  0  0  0  0
 30 35  1  0  0  0  0
 31 32  1  0  0  0  0
 31 38  1  6  0  0  0
 32 33  1  0  0  0  0
 32 37  1  1  0  0  0
 33 34  1  0  0  0  0
 33 36  1  6  0  0  0
 34 35  1  0  0  0  0
  7 22  1  0  0  0  0
M  END
> <score_KierFlex>
0.516559

$$$$
suggested molecule #470
 MOE2019            2D

 39 43  0  0  0  0  0  0  0  0999 V2000
    3.4992   -1.2833    0.0000 C   0  0  0  0  0  0  0  0  0  1  0  0
    4.9992   -1.2762    0.0000 C   0  0  0  0  0  0  0  0  0  2  0  0
    5.7430    0.0263    0.0000 C   0  0  0  0  0  0  0  0  0  3  0  0
    4.9869    1.3218    0.0000 C   0  0  0  0  0  0  0  0  0  4  0  0
    3.4870    1.3147    0.0000 C   0  0  0  0  0  0  0  0  0  5  0  0
    2.7431    0.0122    0.0000 C   0  0  0  0  0  0  0  0  0  6  0  0
    1.2431    0.0051    0.0000 C   0  0  0  0  0  0  0  0  0  7  0  0
    0.4870    1.3006    0.0000 C   0  0  0  0  0  0  0  0  0  8  0  0
    1.2309    2.6032    0.0000 C   0  0  0  0  0  0  0  0  0  9  0  0
    0.4748    3.8987    0.0000 O   0  0  0  0  0  0  0  0  0 10  0  0
    2.7309    2.6102    0.0000 O   0  0  0  0  0  0  0  0  0 11  0  0
    2.9041   -2.3253    0.0000 H   0  0  0  0  0  0  0  0  0  0  0  0
    9.3017   -2.0060    0.0000 C   0  0  0  0  0  0  0  0  0  0  0  0
    7.9991   -1.2621    0.0000 C   0  0  0  0  0  0  0  0  0  0  0  0
    7.2552   -2.5647    0.0000 C   0  0  0  0  0  0  0  0  0  0  0  0
    5.7553   -2.5717    0.0000 C   0  0  0  0  0  0  0  0  0  0  0  0
    7.2430    0.0334    0.0000 O   0  0  0  0  0  0  0  0  0  0  0  0
    9.2946   -0.5060    0.0000 C   0  0  0  0  0  0  0  0  0  0  0  0
    5.7308    2.6244    0.0000 O   0  0  0  0  0  0  0  0  0  0  0  0
    4.9747    3.9198    0.0000 C   0  0  0  0  0  0  0  0  0  0  0  0
   -0.7130    1.2950    0.0000 H   0  0  0  0  0  0  0  0  0  0  0  0
    0.4992   -1.2974    0.0000 C   0  0  0  0  0  0  0  0  0  0  0  0
   -1.0008   -1.3045    0.0000 C   0  0  0  0  0  0  0  0  0  0  0  0
   -1.7447   -2.6070    0.0000 C   0  0  0  0  0  0  0  0  0  0  0  0
   -0.9886   -3.9025    0.0000 C   0  0  0  0  0  0  0  0  0  0  0  0
    0.5114   -3.8955    0.0000 C   0  0  0  0  0  0  0  0  0  0  0  0
    1.2553   -2.5929    0.0000 C   0  0  0  0  0  0  0  0  0  0  0  0
   -1.7324   -5.2051    0.0000 O   0  0  0  0  0  0  0  0  0  0  0  0
   -3.2324   -5.2121    0.0000 C   0  0  0  0  0  0  0  0  0  0  0  0
   -3.9763   -6.5147    0.0000 C   0  0  0  0  0  0  0  0  0  0  0  0
   -5.4763   -6.5217    0.0000 C   0  0  0  0  0  0  0  0  0  0  0  0
   -6.2324   -5.2262    0.0000 C   0  0  0  0  0  0  0  0  0  0  0  0
   -5.4885   -3.9237    0.0000 C   0  0  0  0  0  0  0  0  0  0  0  0
   -3.9885   -3.9166    0.0000 O   0  0  0  0  0  0  0  0  0  0  0  0
   -6.2446   -2.6282    0.0000 C   0  0  0  0  0  0  0  0  0  0  0  0
   -7.7446   -2.6352    0.0000 O   0  0  0  0  0  0  0  0  0  0  0  0
   -7.7324   -5.2333    0.0000 O   0  0  0  0  0  0  0  0  0  0  0  0
   -6.2202   -7.8243    0.0000 O   0  0  0  0  0  0  0  0  0  0  0  0
   -3.2202   -7.8102    0.0000 O   0  0  0  0  0  0  0  0  0  0  0  0
  1  2  1  0  0  0  0
  1  6  2  0  0  0  0
  2  3  2  0  0  0  0
  3  4  1  0  0  0  0
  4  5  2  0  0  0  0
  5  6  1  0  0  0  0
  5 11  1  0  0  0  0
  6  7  1  0  0  0  0
  7  8  2  0  0  0  0
  8  9  1  0  0  0  0
  9 10  2  0  0  0  0
  9 11  1  0  0  0  0
  1 12  1  0  0  0  0
 13 14  1  0  0  0  0
 14 15  1  0  0  0  0
 14 17  1  0  0  0  0
 14 18  1  0  0  0  0
 15 16  2  0  0  0  0
  2 16  1  0  0  0  0
  3 17  1  0  0  0  0
 19 20  1  0  0  0  0
  4 19  1  0  0  0  0
  8 21  1  0  0  0  0
 22 23  1  0  0  0  0
 22 27  2  0  0  0  0
 23 24  2  0  0  0  0
 24 25  1  0  0  0  0
 25 26  2  0  0  0  0
 25 28  1  0  0  0  0
 26 27  1  0  0  0  0
 28 29  1  0  0  0  0
 29 30  1  0  0  0  0
 29 34  1  0  0  0  0
 30 31  1  0  0  0  0
 30 39  1  0  0  0  0
 31 32  1  0  0  0  0
 31 38  1  0  0  0  0
 32 33  1  0  0  0  0
 32 37  1  0  0  0  0
 33 34  1  0  0  0  0
 33 35  1  0  0  0  0
 35 36  1  0  0  0  0
  7 22  1  0  0  0  0
M  END
> <score_Kier3>
0.511654

$$$$
suggested molecule #471
 MOE2019            2D

 39 43  0  0  0  0  0  0  0  0999 V2000
    3.4992   -1.2833    0.0000 C   0  0  0  0  0  0  0  0  0  1  0  0
    4.9992   -1.2762    0.0000 C   0  0  0  0  0  0  0  0  0  2  0  0
    5.7430    0.0263    0.0000 C   0  0  0  0  0  0  0  0  0  3  0  0
    4.9869    1.3218    0.0000 C   0  0  0  0  0  0  0  0  0  4  0  0
    3.4870    1.3147    0.0000 C   0  0  0  0  0  0  0  0  0  5  0  0
    2.7431    0.0122    0.0000 C   0  0  0  0  0  0  0  0  0  6  0  0
    1.2431    0.0051    0.0000 C   0  0  0  0  0  0  0  0  0  7  0  0
    0.4870    1.3006    0.0000 C   0  0  0  0  0  0  0  0  0  8  0  0
    1.2309    2.6032    0.0000 C   0  0  0  0  0  0  0  0  0  9  0  0
    0.4748    3.8987    0.0000 O   0  0  0  0  0  0  0  0  0 10  0  0
    2.7309    2.6102    0.0000 O   0  0  0  0  0  0  0  0  0 11  0  0
    2.9041   -2.3253    0.0000 H   0  0  0  0  0  0  0  0  0  0  0  0
    9.3017   -2.0060    0.0000 C   0  0  0  0  0  0  0  0  0  0  0  0
    7.9991   -1.2621    0.0000 C   0  0  0  0  0  0  0  0  0  0  0  0
    7.2552   -2.5647    0.0000 C   0  0  0  0  0  0  0  0  0  0  0  0
    5.7553   -2.5717    0.0000 C   0  0  0  0  0  0  0  0  0  0  0  0
    7.2430    0.0334    0.0000 O   0  0  0  0  0  0  0  0  0  0  0  0
    9.2946   -0.5060    0.0000 C   0  0  0  0  0  0  0  0  0  0  0  0
    5.7308    2.6244    0.0000 O   0  0  0  0  0  0  0  0  0  0  0  0
    4.9747    3.9198    0.0000 C   0  0  0  0  0  0  0  0  0  0  0  0
   -0.7130    1.2950    0.0000 H   0  0  0  0  0  0  0  0  0  0  0  0
    0.4992   -1.2974    0.0000 C   0  0  0  0  0  0  0  0  0  0  0  0
   -1.0008   -1.3045    0.0000 C   0  0  0  0  0  0  0  0  0  0  0  0
   -1.7447   -2.6070    0.0000 C   0  0  0  0  0  0  0  0  0  0  0  0
   -0.9886   -3.9025    0.0000 C   0  0  0  0  0  0  0  0  0  0  0  0
    0.5114   -3.8955    0.0000 C   0  0  0  0  0  0  0  0  0  0  0  0
    1.2553   -2.5929    0.0000 C   0  0  0  0  0  0  0  0  0  0  0  0
   -1.7324   -5.2051    0.0000 O   0  0  0  0  0  0  0  0  0  0  0  0
   -3.2324   -5.2121    0.0000 C   0  0  0  0  0  0  0  0  0  0  0  0
   -3.9763   -6.5147    0.0000 C   0  0  0  0  0  0  0  0  0  0  0  0
   -5.4763   -6.5217    0.0000 C   0  0  0  0  0  0  0  0  0  0  0  0
   -6.2324   -5.2262    0.0000 C   0  0  0  0  0  0  0  0  0  0  0  0
   -5.4885   -3.9237    0.0000 C   0  0  0  0  0  0  0  0  0  0  0  0
   -3.9885   -3.9166    0.0000 O   0  0  0  0  0  0  0  0  0  0  0  0
   -6.2446   -2.6282    0.0000 C   0  0  0  0  0  0  0  0  0  0  0  0
   -7.7446   -2.6352    0.0000 O   0  0  0  0  0  0  0  0  0  0  0  0
   -7.7324   -5.2333    0.0000 O   0  0  0  0  0  0  0  0  0  0  0  0
   -6.2202   -7.8243    0.0000 O   0  0  0  0  0  0  0  0  0  0  0  0
   -3.2202   -7.8102    0.0000 O   0  0  0  0  0  0  0  0  0  0  0  0
  1  2  1  0  0  0  0
  1  6  2  0  0  0  0
  2  3  2  0  0  0  0
  3  4  1  0  0  0  0
  4  5  2  0  0  0  0
  5  6  1  0  0  0  0
  5 11  1  0  0  0  0
  6  7  1  0  0  0  0
  7  8  2  0  0  0  0
  8  9  1  0  0  0  0
  9 10  2  0  0  0  0
  9 11  1  0  0  0  0
  1 12  1  0  0  0  0
 13 14  1  0  0  0  0
 14 15  1  0  0  0  0
 14 17  1  0  0  0  0
 14 18  1  0  0  0  0
 15 16  2  0  0  0  0
  2 16  1  0  0  0  0
  3 17  1  0  0  0  0
 19 20  1  0  0  0  0
  4 19  1  0  0  0  0
  8 21  1  0  0  0  0
 22 23  1  0  0  0  0
 22 27  2  0  0  0  0
 23 24  2  0  0  0  0
 24 25  1  0  0  0  0
 25 26  2  0  0  0  0
 25 28  1  0  0  0  0
 26 27  1  0  0  0  0
 28 29  1  0  0  0  0
 29 30  1  0  0  0  0
 29 34  1  0  0  0  0
 30 31  1  0  0  0  0
 30 39  1  0  0  0  0
 31 32  1  0  0  0  0
 31 38  1  0  0  0  0
 32 33  1  0  0  0  0
 32 37  1  0  0  0  0
 33 34  1  0  0  0  0
 33 35  1  0  0  0  0
 35 36  1  0  0  0  0
  7 22  1  0  0  0  0
M  END
> <score_KierA1>
0.517686

$$$$
suggested molecule #472
 MOE2019            2D

 39 43  0  0  0  0  0  0  0  0999 V2000
    3.4992   -1.2833    0.0000 C   0  0  0  0  0  0  0  0  0  1  0  0
    4.9992   -1.2762    0.0000 C   0  0  0  0  0  0  0  0  0  2  0  0
    5.7430    0.0263    0.0000 C   0  0  0  0  0  0  0  0  0  3  0  0
    4.9869    1.3218    0.0000 C   0  0  0  0  0  0  0  0  0  4  0  0
    3.4870    1.3147    0.0000 C   0  0  0  0  0  0  0  0  0  5  0  0
    2.7431    0.0122    0.0000 C   0  0  0  0  0  0  0  0  0  6  0  0
    1.2431    0.0051    0.0000 C   0  0  0  0  0  0  0  0  0  7  0  0
    0.4870    1.3006    0.0000 C   0  0  0  0  0  0  0  0  0  8  0  0
    1.2309    2.6032    0.0000 C   0  0  0  0  0  0  0  0  0  9  0  0
    0.4748    3.8987    0.0000 O   0  0  0  0  0  0  0  0  0 10  0  0
    2.7309    2.6102    0.0000 O   0  0  0  0  0  0  0  0  0 11  0  0
    2.9041   -2.3253    0.0000 H   0  0  0  0  0  0  0  0  0  0  0  0
    9.3017   -2.0060    0.0000 C   0  0  0  0  0  0  0  0  0  0  0  0
    7.9991   -1.2621    0.0000 C   0  0  0  0  0  0  0  0  0  0  0  0
    7.2552   -2.5647    0.0000 C   0  0  0  0  0  0  0  0  0  0  0  0
    5.7553   -2.5717    0.0000 C   0  0  0  0  0  0  0  0  0  0  0  0
    7.2430    0.0334    0.0000 O   0  0  0  0  0  0  0  0  0  0  0  0
    9.2946   -0.5060    0.0000 C   0  0  0  0  0  0  0  0  0  0  0  0
    5.7308    2.6244    0.0000 O   0  0  0  0  0  0  0  0  0  0  0  0
    4.9747    3.9198    0.0000 C   0  0  0  0  0  0  0  0  0  0  0  0
   -0.7130    1.2950    0.0000 H   0  0  0  0  0  0  0  0  0  0  0  0
    0.4992   -1.2974    0.0000 C   0  0  0  0  0  0  0  0  0  0  0  0
   -1.0008   -1.3045    0.0000 C   0  0  0  0  0  0  0  0  0  0  0  0
   -1.7447   -2.6070    0.0000 C   0  0  0  0  0  0  0  0  0  0  0  0
   -0.9886   -3.9025    0.0000 C   0  0  0  0  0  0  0  0  0  0  0  0
    0.5114   -3.8955    0.0000 C   0  0  0  0  0  0  0  0  0  0  0  0
    1.2553   -2.5929    0.0000 C   0  0  0  0  0  0  0  0  0  0  0  0
   -1.7324   -5.2051    0.0000 O   0  0  0  0  0  0  0  0  0  0  0  0
   -3.2324   -5.2121    0.0000 C   0  0  0  0  0  0  0  0  0  0  0  0
   -3.9763   -6.5147    0.0000 C   0  0  0  0  0  0  0  0  0  0  0  0
   -5.4763   -6.5217    0.0000 C   0  0  0  0  0  0  0  0  0  0  0  0
   -6.2324   -5.2262    0.0000 C   0  0  0  0  0  0  0  0  0  0  0  0
   -5.4885   -3.9237    0.0000 C   0  0  0  0  0  0  0  0  0  0  0  0
   -3.9885   -3.9166    0.0000 O   0  0  0  0  0  0  0  0  0  0  0  0
   -6.2446   -2.6282    0.0000 C   0  0  0  0  0  0  0  0  0  0  0  0
   -7.7446   -2.6352    0.0000 O   0  0  0  0  0  0  0  0  0  0  0  0
   -7.7324   -5.2333    0.0000 O   0  0  0  0  0  0  0  0  0  0  0  0
   -6.2202   -7.8243    0.0000 O   0  0  0  0  0  0  0  0  0  0  0  0
   -3.2202   -7.8102    0.0000 O   0  0  0  0  0  0  0  0  0  0  0  0
  1  2  1  0  0  0  0
  1  6  2  0  0  0  0
  2  3  2  0  0  0  0
  3  4  1  0  0  0  0
  4  5  2  0  0  0  0
  5  6  1  0  0  0  0
  5 11  1  0  0  0  0
  6  7  1  0  0  0  0
  7  8  2  0  0  0  0
  8  9  1  0  0  0  0
  9 10  2  0  0  0  0
  9 11  1  0  0  0  0
  1 12  1  0  0  0  0
 13 14  1  0  0  0  0
 14 15  1  0  0  0  0
 14 17  1  0  0  0  0
 14 18  1  0  0  0  0
 15 16  2  0  0  0  0
  2 16  1  0  0  0  0
  3 17  1  0  0  0  0
 19 20  1  0  0  0  0
  4 19  1  0  0  0  0
  8 21  1  0  0  0  0
 22 23  1  0  0  0  0
 22 27  2  0  0  0  0
 23 24  2  0  0  0  0
 24 25  1  0  0  0  0
 25 26  2  0  0  0  0
 25 28  1  0  0  0  0
 26 27  1  0  0  0  0
 28 29  1  0  0  0  0
 29 30  1  0  0  0  0
 29 34  1  0  0  0  0
 30 31  1  0  0  0  0
 30 39  1  0  0  0  0
 31 32  1  0  0  0  0
 31 38  1  0  0  0  0
 32 33  1  0  0  0  0
 32 37  1  0  0  0  0
 33 34  1  0  0  0  0
 33 35  1  0  0  0  0
 35 36  1  0  0  0  0
  7 22  1  0  0  0  0
M  END
> <score_KierA2>
0.516748

$$$$
suggested molecule #473
 MOE2019            2D

 39 43  0  0  0  0  0  0  0  0999 V2000
    3.4992   -1.2833    0.0000 C   0  0  0  0  0  0  0  0  0  1  0  0
    4.9992   -1.2762    0.0000 C   0  0  0  0  0  0  0  0  0  2  0  0
    5.7430    0.0263    0.0000 C   0  0  0  0  0  0  0  0  0  3  0  0
    4.9869    1.3218    0.0000 C   0  0  0  0  0  0  0  0  0  4  0  0
    3.4870    1.3147    0.0000 C   0  0  0  0  0  0  0  0  0  5  0  0
    2.7431    0.0122    0.0000 C   0  0  0  0  0  0  0  0  0  6  0  0
    1.2431    0.0051    0.0000 C   0  0  0  0  0  0  0  0  0  7  0  0
    0.4870    1.3006    0.0000 C   0  0  0  0  0  0  0  0  0  8  0  0
    1.2309    2.6032    0.0000 C   0  0  0  0  0  0  0  0  0  9  0  0
    0.4748    3.8987    0.0000 O   0  0  0  0  0  0  0  0  0 10  0  0
    2.7309    2.6102    0.0000 O   0  0  0  0  0  0  0  0  0 11  0  0
    2.9041   -2.3253    0.0000 H   0  0  0  0  0  0  0  0  0  0  0  0
    9.3017   -2.0060    0.0000 C   0  0  0  0  0  0  0  0  0  0  0  0
    7.9991   -1.2621    0.0000 C   0  0  0  0  0  0  0  0  0  0  0  0
    7.2552   -2.5647    0.0000 C   0  0  0  0  0  0  0  0  0  0  0  0
    5.7553   -2.5717    0.0000 C   0  0  0  0  0  0  0  0  0  0  0  0
    7.2430    0.0334    0.0000 O   0  0  0  0  0  0  0  0  0  0  0  0
    9.2946   -0.5060    0.0000 C   0  0  0  0  0  0  0  0  0  0  0  0
    5.7308    2.6244    0.0000 O   0  0  0  0  0  0  0  0  0  0  0  0
    4.9747    3.9198    0.0000 C   0  0  0  0  0  0  0  0  0  0  0  0
   -0.7130    1.2950    0.0000 H   0  0  0  0  0  0  0  0  0  0  0  0
    0.4992   -1.2974    0.0000 C   0  0  0  0  0  0  0  0  0  0  0  0
   -1.0008   -1.3045    0.0000 C   0  0  0  0  0  0  0  0  0  0  0  0
   -1.7447   -2.6070    0.0000 C   0  0  0  0  0  0  0  0  0  0  0  0
   -0.9886   -3.9025    0.0000 C   0  0  0  0  0  0  0  0  0  0  0  0
    0.5114   -3.8955    0.0000 C   0  0  0  0  0  0  0  0  0  0  0  0
    1.2553   -2.5929    0.0000 C   0  0  0  0  0  0  0  0  0  0  0  0
   -1.7324   -5.2051    0.0000 O   0  0  0  0  0  0  0  0  0  0  0  0
   -3.2324   -5.2121    0.0000 C   0  0  0  0  0  0  0  0  0  0  0  0
   -3.9763   -6.5147    0.0000 C   0  0  0  0  0  0  0  0  0  0  0  0
   -5.4763   -6.5217    0.0000 C   0  0  0  0  0  0  0  0  0  0  0  0
   -6.2324   -5.2262    0.0000 C   0  0  0  0  0  0  0  0  0  0  0  0
   -5.4885   -3.9237    0.0000 C   0  0  0  0  0  0  0  0  0  0  0  0
   -3.9885   -3.9166    0.0000 O   0  0  0  0  0  0  0  0  0  0  0  0
   -6.2446   -2.6282    0.0000 C   0  0  0  0  0  0  0  0  0  0  0  0
   -7.7446   -2.6352    0.0000 O   0  0  0  0  0  0  0  0  0  0  0  0
   -7.7324   -5.2333    0.0000 O   0  0  0  0  0  0  0  0  0  0  0  0
   -6.2202   -7.8243    0.0000 O   0  0  0  0  0  0  0  0  0  0  0  0
   -3.2202   -7.8102    0.0000 O   0  0  0  0  0  0  0  0  0  0  0  0
  1  2  1  0  0  0  0
  1  6  2  0  0  0  0
  2  3  2  0  0  0  0
  3  4  1  0  0  0  0
  4  5  2  0  0  0  0
  5  6  1  0  0  0  0
  5 11  1  0  0  0  0
  6  7  1  0  0  0  0
  7  8  2  0  0  0  0
  8  9  1  0  0  0  0
  9 10  2  0  0  0  0
  9 11  1  0  0  0  0
  1 12  1  0  0  0  0
 13 14  1  0  0  0  0
 14 15  1  0  0  0  0
 14 17  1  0  0  0  0
 14 18  1  0  0  0  0
 15 16  2  0  0  0  0
  2 16  1  0  0  0  0
  3 17  1  0  0  0  0
 19 20  1  0  0  0  0
  4 19  1  0  0  0  0
  8 21  1  0  0  0  0
 22 23  1  0  0  0  0
 22 27  2  0  0  0  0
 23 24  2  0  0  0  0
 24 25  1  0  0  0  0
 25 26  2  0  0  0  0
 25 28  1  0  0  0  0
 26 27  1  0  0  0  0
 28 29  1  0  0  0  0
 29 30  1  0  0  0  0
 29 34  1  0  0  0  0
 30 31  1  0  0  0  0
 30 39  1  0  0  0  0
 31 32  1  0  0  0  0
 31 38  1  0  0  0  0
 32 33  1  0  0  0  0
 32 37  1  0  0  0  0
 33 34  1  0  0  0  0
 33 35  1  0  0  0  0
 35 36  1  0  0  0  0
  7 22  1  0  0  0  0
M  END
> <score_KierA3>
0.512364

$$$$
suggested molecule #474
 MOE2019            2D

 39 43  0  0  0  0  0  0  0  0999 V2000
    3.4992   -1.2833    0.0000 C   0  0  0  0  0  0  0  0  0  1  0  0
    4.9992   -1.2762    0.0000 C   0  0  0  0  0  0  0  0  0  2  0  0
    5.7430    0.0263    0.0000 C   0  0  0  0  0  0  0  0  0  3  0  0
    4.9869    1.3218    0.0000 C   0  0  0  0  0  0  0  0  0  4  0  0
    3.4870    1.3147    0.0000 C   0  0  0  0  0  0  0  0  0  5  0  0
    2.7431    0.0122    0.0000 C   0  0  0  0  0  0  0  0  0  6  0  0
    1.2431    0.0051    0.0000 C   0  0  0  0  0  0  0  0  0  7  0  0
    0.4870    1.3006    0.0000 C   0  0  0  0  0  0  0  0  0  8  0  0
    1.2309    2.6032    0.0000 C   0  0  0  0  0  0  0  0  0  9  0  0
    0.4748    3.8987    0.0000 O   0  0  0  0  0  0  0  0  0 10  0  0
    2.7309    2.6102    0.0000 O   0  0  0  0  0  0  0  0  0 11  0  0
    2.9041   -2.3253    0.0000 H   0  0  0  0  0  0  0  0  0  0  0  0
    9.3017   -2.0060    0.0000 C   0  0  0  0  0  0  0  0  0  0  0  0
    7.9991   -1.2621    0.0000 C   0  0  0  0  0  0  0  0  0  0  0  0
    7.2552   -2.5647    0.0000 C   0  0  0  0  0  0  0  0  0  0  0  0
    5.7553   -2.5717    0.0000 C   0  0  0  0  0  0  0  0  0  0  0  0
    7.2430    0.0334    0.0000 O   0  0  0  0  0  0  0  0  0  0  0  0
    9.2946   -0.5060    0.0000 C   0  0  0  0  0  0  0  0  0  0  0  0
    5.7308    2.6244    0.0000 O   0  0  0  0  0  0  0  0  0  0  0  0
    4.9747    3.9198    0.0000 C   0  0  0  0  0  0  0  0  0  0  0  0
   -0.7130    1.2950    0.0000 H   0  0  0  0  0  0  0  0  0  0  0  0
    0.4992   -1.2974    0.0000 C   0  0  0  0  0  0  0  0  0  0  0  0
   -1.0008   -1.3045    0.0000 C   0  0  0  0  0  0  0  0  0  0  0  0
   -1.7447   -2.6070    0.0000 C   0  0  0  0  0  0  0  0  0  0  0  0
   -0.9886   -3.9025    0.0000 C   0  0  0  0  0  0  0  0  0  0  0  0
    0.5114   -3.8955    0.0000 C   0  0  0  0  0  0  0  0  0  0  0  0
    1.2553   -2.5929    0.0000 C   0  0  0  0  0  0  0  0  0  0  0  0
   -1.7324   -5.2051    0.0000 O   0  0  0  0  0  0  0  0  0  0  0  0
   -3.2324   -5.2121    0.0000 C   0  0  0  0  0  0  0  0  0  0  0  0
   -3.9763   -6.5147    0.0000 C   0  0  0  0  0  0  0  0  0  0  0  0
   -5.4763   -6.5217    0.0000 C   0  0  0  0  0  0  0  0  0  0  0  0
   -6.2324   -5.2262    0.0000 C   0  0  0  0  0  0  0  0  0  0  0  0
   -5.4885   -3.9237    0.0000 C   0  0  0  0  0  0  0  0  0  0  0  0
   -3.9885   -3.9166    0.0000 O   0  0  0  0  0  0  0  0  0  0  0  0
   -6.2446   -2.6282    0.0000 C   0  0  0  0  0  0  0  0  0  0  0  0
   -7.7446   -2.6352    0.0000 O   0  0  0  0  0  0  0  0  0  0  0  0
   -7.7324   -5.2333    0.0000 O   0  0  0  0  0  0  0  0  0  0  0  0
   -6.2202   -7.8243    0.0000 O   0  0  0  0  0  0  0  0  0  0  0  0
   -3.2202   -7.8102    0.0000 O   0  0  0  0  0  0  0  0  0  0  0  0
  1  2  1  0  0  0  0
  1  6  2  0  0  0  0
  2  3  2  0  0  0  0
  3  4  1  0  0  0  0
  4  5  2  0  0  0  0
  5  6  1  0  0  0  0
  5 11  1  0  0  0  0
  6  7  1  0  0  0  0
  7  8  2  0  0  0  0
  8  9  1  0  0  0  0
  9 10  2  0  0  0  0
  9 11  1  0  0  0  0
  1 12  1  0  0  0  0
 13 14  1  0  0  0  0
 14 15  1  0  0  0  0
 14 17  1  0  0  0  0
 14 18  1  0  0  0  0
 15 16  2  0  0  0  0
  2 16  1  0  0  0  0
  3 17  1  0  0  0  0
 19 20  1  0  0  0  0
  4 19  1  0  0  0  0
  8 21  1  0  0  0  0
 22 23  1  0  0  0  0
 22 27  2  0  0  0  0
 23 24  2  0  0  0  0
 24 25  1  0  0  0  0
 25 26  2  0  0  0  0
 25 28  1  0  0  0  0
 26 27  1  0  0  0  0
 28 29  1  0  0  0  0
 29 30  1  0  0  0  0
 29 34  1  0  0  0  0
 30 31  1  0  0  0  0
 30 39  1  0  0  0  0
 31 32  1  0  0  0  0
 31 38  1  0  0  0  0
 32 33  1  0  0  0  0
 32 37  1  0  0  0  0
 33 34  1  0  0  0  0
 33 35  1  0  0  0  0
 35 36  1  0  0  0  0
  7 22  1  0  0  0  0
M  END
> <score_KierFlex>
0.516495

$$$$
suggested molecule #475
 MOE2019            2D

 31 34  0  0  0  0  0  0  0  0999 V2000
    3.4992   -1.2833    0.0000 C   0  0  0  0  0  0  0  0  0  1  0  0
    4.9992   -1.2762    0.0000 C   0  0  0  0  0  0  0  0  0  2  0  0
    5.7430    0.0263    0.0000 C   0  0  0  0  0  0  0  0  0  3  0  0
    4.9869    1.3218    0.0000 C   0  0  0  0  0  0  0  0  0  4  0  0
    3.4870    1.3147    0.0000 C   0  0  0  0  0  0  0  0  0  5  0  0
    2.7431    0.0122    0.0000 C   0  0  0  0  0  0  0  0  0  6  0  0
    1.2431    0.0051    0.0000 C   0  0  0  0  0  0  0  0  0  7  0  0
    0.4870    1.3006    0.0000 C   0  0  0  0  0  0  0  0  0  8  0  0
    1.2309    2.6032    0.0000 C   0  0  0  0  0  0  0  0  0  9  0  0
    0.4748    3.8987    0.0000 O   0  0  0  0  0  0  0  0  0 10  0  0
    2.7309    2.6102    0.0000 O   0  0  0  0  0  0  0  0  0 11  0  0
    2.9041   -2.3253    0.0000 H   0  0  0  0  0  0  0  0  0  0  0  0
    9.3017   -2.0060    0.0000 C   0  0  0  0  0  0  0  0  0  0  0  0
    7.9991   -1.2621    0.0000 C   0  0  0  0  0  0  0  0  0  0  0  0
    7.2552   -2.5647    0.0000 C   0  0  0  0  0  0  0  0  0  0  0  0
    5.7553   -2.5717    0.0000 C   0  0  0  0  0  0  0  0  0  0  0  0
    7.2430    0.0334    0.0000 O   0  0  0  0  0  0  0  0  0  0  0  0
    9.2946   -0.5060    0.0000 C   0  0  0  0  0  0  0  0  0  0  0  0
    5.7308    2.6244    0.0000 O   0  0  0  0  0  0  0  0  0  0  0  0
    4.9747    3.9198    0.0000 C   0  0  0  0  0  0  0  0  0  0  0  0
   -0.7130    1.2950    0.0000 H   0  0  0  0  0  0  0  0  0  0  0  0
   -0.9763   -6.5006    0.0000 C   0  0  0  0  0  0  0  0  0  0  0  0
   -1.7324   -5.2051    0.0000 O   0  0  0  0  0  0  0  0  0  0  0  0
   -0.9886   -3.9025    0.0000 C   0  0  0  0  0  0  0  0  0  0  0  0
   -1.7447   -2.6070    0.0000 C   0  0  0  0  0  0  0  0  0  0  0  0
   -1.0008   -1.3045    0.0000 C   0  0  0  0  0  0  0  0  0  0  0  0
    0.4992   -1.2974    0.0000 C   0  0  0  0  0  0  0  0  0  0  0  0
    1.2553   -2.5929    0.0000 C   0  0  0  0  0  0  0  0  0  0  0  0
    0.5114   -3.8955    0.0000 C   0  0  0  0  0  0  0  0  0  0  0  0
   -3.2446   -2.6141    0.0000 O   0  0  0  0  0  0  0  0  0  0  0  0
   -4.0007   -1.3186    0.0000 C   0  0  0  0  0  0  0  0  0  0  0  0
  1  2  1  0  0  0  0
  1  6  2  0  0  0  0
  2  3  2  0  0  0  0
  3  4  1  0  0  0  0
  4  5  2  0  0  0  0
  5  6  1  0  0  0  0
  5 11  1  0  0  0  0
  6  7  1  0  0  0  0
  7  8  2  0  0  0  0
  8  9  1  0  0  0  0
  9 10  2  0  0  0  0
  9 11  1  0  0  0  0
  1 12  1  0  0  0  0
 13 14  1  0  0  0  0
 14 15  1  0  0  0  0
 14 17  1  0  0  0  0
 14 18  1  0  0  0  0
 15 16  2  0  0  0  0
  2 16  1  0  0  0  0
  3 17  1  0  0  0  0
 19 20  1  0  0  0  0
  4 19  1  0  0  0  0
  8 21  1  0  0  0  0
 22 23  1  0  0  0  0
 23 24  1  0  0  0  0
 24 25  1  0  0  0  0
 24 29  2  0  0  0  0
 25 26  2  0  0  0  0
 25 30  1  0  0  0  0
 26 27  1  0  0  0  0
 27 28  2  0  0  0  0
 28 29  1  0  0  0  0
 30 31  1  0  0  0  0
  7 27  1  0  0  0  0
M  END
> <score_Kier3>
0.511692

$$$$
suggested molecule #476
 MOE2019            2D

 31 34  0  0  0  0  0  0  0  0999 V2000
    3.4992   -1.2833    0.0000 C   0  0  0  0  0  0  0  0  0  1  0  0
    4.9992   -1.2762    0.0000 C   0  0  0  0  0  0  0  0  0  2  0  0
    5.7430    0.0263    0.0000 C   0  0  0  0  0  0  0  0  0  3  0  0
    4.9869    1.3218    0.0000 C   0  0  0  0  0  0  0  0  0  4  0  0
    3.4870    1.3147    0.0000 C   0  0  0  0  0  0  0  0  0  5  0  0
    2.7431    0.0122    0.0000 C   0  0  0  0  0  0  0  0  0  6  0  0
    1.2431    0.0051    0.0000 C   0  0  0  0  0  0  0  0  0  7  0  0
    0.4870    1.3006    0.0000 C   0  0  0  0  0  0  0  0  0  8  0  0
    1.2309    2.6032    0.0000 C   0  0  0  0  0  0  0  0  0  9  0  0
    0.4748    3.8987    0.0000 O   0  0  0  0  0  0  0  0  0 10  0  0
    2.7309    2.6102    0.0000 O   0  0  0  0  0  0  0  0  0 11  0  0
    2.9041   -2.3253    0.0000 H   0  0  0  0  0  0  0  0  0  0  0  0
    9.3017   -2.0060    0.0000 C   0  0  0  0  0  0  0  0  0  0  0  0
    7.9991   -1.2621    0.0000 C   0  0  0  0  0  0  0  0  0  0  0  0
    7.2552   -2.5647    0.0000 C   0  0  0  0  0  0  0  0  0  0  0  0
    5.7553   -2.5717    0.0000 C   0  0  0  0  0  0  0  0  0  0  0  0
    7.2430    0.0334    0.0000 O   0  0  0  0  0  0  0  0  0  0  0  0
    9.2946   -0.5060    0.0000 C   0  0  0  0  0  0  0  0  0  0  0  0
    5.7308    2.6244    0.0000 O   0  0  0  0  0  0  0  0  0  0  0  0
    4.9747    3.9198    0.0000 C   0  0  0  0  0  0  0  0  0  0  0  0
   -0.7130    1.2950    0.0000 H   0  0  0  0  0  0  0  0  0  0  0  0
   -0.9763   -6.5006    0.0000 C   0  0  0  0  0  0  0  0  0  0  0  0
   -1.7324   -5.2051    0.0000 O   0  0  0  0  0  0  0  0  0  0  0  0
   -0.9886   -3.9025    0.0000 C   0  0  0  0  0  0  0  0  0  0  0  0
   -1.7447   -2.6070    0.0000 C   0  0  0  0  0  0  0  0  0  0  0  0
   -1.0008   -1.3045    0.0000 C   0  0  0  0  0  0  0  0  0  0  0  0
    0.4992   -1.2974    0.0000 C   0  0  0  0  0  0  0  0  0  0  0  0
    1.2553   -2.5929    0.0000 C   0  0  0  0  0  0  0  0  0  0  0  0
    0.5114   -3.8955    0.0000 C   0  0  0  0  0  0  0  0  0  0  0  0
   -3.2446   -2.6141    0.0000 O   0  0  0  0  0  0  0  0  0  0  0  0
   -4.0007   -1.3186    0.0000 C   0  0  0  0  0  0  0  0  0  0  0  0
  1  2  1  0  0  0  0
  1  6  2  0  0  0  0
  2  3  2  0  0  0  0
  3  4  1  0  0  0  0
  4  5  2  0  0  0  0
  5  6  1  0  0  0  0
  5 11  1  0  0  0  0
  6  7  1  0  0  0  0
  7  8  2  0  0  0  0
  8  9  1  0  0  0  0
  9 10  2  0  0  0  0
  9 11  1  0  0  0  0
  1 12  1  0  0  0  0
 13 14  1  0  0  0  0
 14 15  1  0  0  0  0
 14 17  1  0  0  0  0
 14 18  1  0  0  0  0
 15 16  2  0  0  0  0
  2 16  1  0  0  0  0
  3 17  1  0  0  0  0
 19 20  1  0  0  0  0
  4 19  1  0  0  0  0
  8 21  1  0  0  0  0
 22 23  1  0  0  0  0
 23 24  1  0  0  0  0
 24 25  1  0  0  0  0
 24 29  2  0  0  0  0
 25 26  2  0  0  0  0
 25 30  1  0  0  0  0
 26 27  1  0  0  0  0
 27 28  2  0  0  0  0
 28 29  1  0  0  0  0
 30 31  1  0  0  0  0
  7 27  1  0  0  0  0
M  END
> <score_KierA1>
0.517667

$$$$
suggested molecule #477
 MOE2019            2D

 31 34  0  0  0  0  0  0  0  0999 V2000
    3.4992   -1.2833    0.0000 C   0  0  0  0  0  0  0  0  0  1  0  0
    4.9992   -1.2762    0.0000 C   0  0  0  0  0  0  0  0  0  2  0  0
    5.7430    0.0263    0.0000 C   0  0  0  0  0  0  0  0  0  3  0  0
    4.9869    1.3218    0.0000 C   0  0  0  0  0  0  0  0  0  4  0  0
    3.4870    1.3147    0.0000 C   0  0  0  0  0  0  0  0  0  5  0  0
    2.7431    0.0122    0.0000 C   0  0  0  0  0  0  0  0  0  6  0  0
    1.2431    0.0051    0.0000 C   0  0  0  0  0  0  0  0  0  7  0  0
    0.4870    1.3006    0.0000 C   0  0  0  0  0  0  0  0  0  8  0  0
    1.2309    2.6032    0.0000 C   0  0  0  0  0  0  0  0  0  9  0  0
    0.4748    3.8987    0.0000 O   0  0  0  0  0  0  0  0  0 10  0  0
    2.7309    2.6102    0.0000 O   0  0  0  0  0  0  0  0  0 11  0  0
    2.9041   -2.3253    0.0000 H   0  0  0  0  0  0  0  0  0  0  0  0
    9.3017   -2.0060    0.0000 C   0  0  0  0  0  0  0  0  0  0  0  0
    7.9991   -1.2621    0.0000 C   0  0  0  0  0  0  0  0  0  0  0  0
    7.2552   -2.5647    0.0000 C   0  0  0  0  0  0  0  0  0  0  0  0
    5.7553   -2.5717    0.0000 C   0  0  0  0  0  0  0  0  0  0  0  0
    7.2430    0.0334    0.0000 O   0  0  0  0  0  0  0  0  0  0  0  0
    9.2946   -0.5060    0.0000 C   0  0  0  0  0  0  0  0  0  0  0  0
    5.7308    2.6244    0.0000 O   0  0  0  0  0  0  0  0  0  0  0  0
    4.9747    3.9198    0.0000 C   0  0  0  0  0  0  0  0  0  0  0  0
   -0.7130    1.2950    0.0000 H   0  0  0  0  0  0  0  0  0  0  0  0
   -0.9763   -6.5006    0.0000 C   0  0  0  0  0  0  0  0  0  0  0  0
   -1.7324   -5.2051    0.0000 O   0  0  0  0  0  0  0  0  0  0  0  0
   -0.9886   -3.9025    0.0000 C   0  0  0  0  0  0  0  0  0  0  0  0
   -1.7447   -2.6070    0.0000 C   0  0  0  0  0  0  0  0  0  0  0  0
   -1.0008   -1.3045    0.0000 C   0  0  0  0  0  0  0  0  0  0  0  0
    0.4992   -1.2974    0.0000 C   0  0  0  0  0  0  0  0  0  0  0  0
    1.2553   -2.5929    0.0000 C   0  0  0  0  0  0  0  0  0  0  0  0
    0.5114   -3.8955    0.0000 C   0  0  0  0  0  0  0  0  0  0  0  0
   -3.2446   -2.6141    0.0000 O   0  0  0  0  0  0  0  0  0  0  0  0
   -4.0007   -1.3186    0.0000 C   0  0  0  0  0  0  0  0  0  0  0  0
  1  2  1  0  0  0  0
  1  6  2  0  0  0  0
  2  3  2  0  0  0  0
  3  4  1  0  0  0  0
  4  5  2  0  0  0  0
  5  6  1  0  0  0  0
  5 11  1  0  0  0  0
  6  7  1  0  0  0  0
  7  8  2  0  0  0  0
  8  9  1  0  0  0  0
  9 10  2  0  0  0  0
  9 11  1  0  0  0  0
  1 12  1  0  0  0  0
 13 14  1  0  0  0  0
 14 15  1  0  0  0  0
 14 17  1  0  0  0  0
 14 18  1  0  0  0  0
 15 16  2  0  0  0  0
  2 16  1  0  0  0  0
  3 17  1  0  0  0  0
 19 20  1  0  0  0  0
  4 19  1  0  0  0  0
  8 21  1  0  0  0  0
 22 23  1  0  0  0  0
 23 24  1  0  0  0  0
 24 25  1  0  0  0  0
 24 29  2  0  0  0  0
 25 26  2  0  0  0  0
 25 30  1  0  0  0  0
 26 27  1  0  0  0  0
 27 28  2  0  0  0  0
 28 29  1  0  0  0  0
 30 31  1  0  0  0  0
  7 27  1  0  0  0  0
M  END
> <score_KierA3>
0.512402

$$$$
suggested molecule #478
 MOE2019            2D

 31 34  0  0  0  0  0  0  0  0999 V2000
    3.4992   -1.2833    0.0000 C   0  0  0  0  0  0  0  0  0  1  0  0
    4.9992   -1.2762    0.0000 C   0  0  0  0  0  0  0  0  0  2  0  0
    5.7430    0.0263    0.0000 C   0  0  0  0  0  0  0  0  0  3  0  0
    4.9869    1.3218    0.0000 C   0  0  0  0  0  0  0  0  0  4  0  0
    3.4870    1.3147    0.0000 C   0  0  0  0  0  0  0  0  0  5  0  0
    2.7431    0.0122    0.0000 C   0  0  0  0  0  0  0  0  0  6  0  0
    1.2431    0.0051    0.0000 C   0  0  0  0  0  0  0  0  0  7  0  0
    0.4870    1.3006    0.0000 C   0  0  0  0  0  0  0  0  0  8  0  0
    1.2309    2.6032    0.0000 C   0  0  0  0  0  0  0  0  0  9  0  0
    0.4748    3.8987    0.0000 O   0  0  0  0  0  0  0  0  0 10  0  0
    2.7309    2.6102    0.0000 O   0  0  0  0  0  0  0  0  0 11  0  0
    2.9041   -2.3253    0.0000 H   0  0  0  0  0  0  0  0  0  0  0  0
    9.3017   -2.0060    0.0000 C   0  0  0  0  0  0  0  0  0  0  0  0
    7.9991   -1.2621    0.0000 C   0  0  0  0  0  0  0  0  0  0  0  0
    7.2552   -2.5647    0.0000 C   0  0  0  0  0  0  0  0  0  0  0  0
    5.7553   -2.5717    0.0000 C   0  0  0  0  0  0  0  0  0  0  0  0
    7.2430    0.0334    0.0000 O   0  0  0  0  0  0  0  0  0  0  0  0
    9.2946   -0.5060    0.0000 C   0  0  0  0  0  0  0  0  0  0  0  0
    5.7308    2.6244    0.0000 O   0  0  0  0  0  0  0  0  0  0  0  0
    4.9747    3.9198    0.0000 C   0  0  0  0  0  0  0  0  0  0  0  0
   -0.7130    1.2950    0.0000 H   0  0  0  0  0  0  0  0  0  0  0  0
   -0.9763   -6.5006    0.0000 C   0  0  0  0  0  0  0  0  0  0  0  0
   -1.7324   -5.2051    0.0000 O   0  0  0  0  0  0  0  0  0  0  0  0
   -0.9886   -3.9025    0.0000 C   0  0  0  0  0  0  0  0  0  0  0  0
   -1.7447   -2.6070    0.0000 C   0  0  0  0  0  0  0  0  0  0  0  0
   -1.0008   -1.3045    0.0000 C   0  0  0  0  0  0  0  0  0  0  0  0
    0.4992   -1.2974    0.0000 C   0  0  0  0  0  0  0  0  0  0  0  0
    1.2553   -2.5929    0.0000 C   0  0  0  0  0  0  0  0  0  0  0  0
    0.5114   -3.8955    0.0000 C   0  0  0  0  0  0  0  0  0  0  0  0
   -3.2446   -2.6141    0.0000 O   0  0  0  0  0  0  0  0  0  0  0  0
   -4.0007   -1.3186    0.0000 C   0  0  0  0  0  0  0  0  0  0  0  0
  1  2  1  0  0  0  0
  1  6  2  0  0  0  0
  2  3  2  0  0  0  0
  3  4  1  0  0  0  0
  4  5  2  0  0  0  0
  5  6  1  0  0  0  0
  5 11  1  0  0  0  0
  6  7  1  0  0  0  0
  7  8  2  0  0  0  0
  8  9  1  0  0  0  0
  9 10  2  0  0  0  0
  9 11  1  0  0  0  0
  1 12  1  0  0  0  0
 13 14  1  0  0  0  0
 14 15  1  0  0  0  0
 14 17  1  0  0  0  0
 14 18  1  0  0  0  0
 15 16  2  0  0  0  0
  2 16  1  0  0  0  0
  3 17  1  0  0  0  0
 19 20  1  0  0  0  0
  4 19  1  0  0  0  0
  8 21  1  0  0  0  0
 22 23  1  0  0  0  0
 23 24  1  0  0  0  0
 24 25  1  0  0  0  0
 24 29  2  0  0  0  0
 25 26  2  0  0  0  0
 25 30  1  0  0  0  0
 26 27  1  0  0  0  0
 27 28  2  0  0  0  0
 28 29  1  0  0  0  0
 30 31  1  0  0  0  0
  7 27  1  0  0  0  0
M  END
> <score_KierFlex>
0.516435

$$$$
suggested molecule #479
 MOE2019            2D

 31 34  0  0  0  0  0  0  0  0999 V2000
    3.4992   -1.2833    0.0000 C   0  0  0  0  0  0  0  0  0  1  0  0
    4.9992   -1.2762    0.0000 C   0  0  0  0  0  0  0  0  0  2  0  0
    5.7430    0.0263    0.0000 C   0  0  0  0  0  0  0  0  0  3  0  0
    4.9869    1.3218    0.0000 C   0  0  0  0  0  0  0  0  0  4  0  0
    3.4870    1.3147    0.0000 C   0  0  0  0  0  0  0  0  0  5  0  0
    2.7431    0.0122    0.0000 C   0  0  0  0  0  0  0  0  0  6  0  0
    1.2431    0.0051    0.0000 C   0  0  0  0  0  0  0  0  0  7  0  0
    0.4870    1.3006    0.0000 C   0  0  0  0  0  0  0  0  0  8  0  0
    1.2309    2.6032    0.0000 C   0  0  0  0  0  0  0  0  0  9  0  0
    0.4748    3.8987    0.0000 O   0  0  0  0  0  0  0  0  0 10  0  0
    2.7309    2.6102    0.0000 O   0  0  0  0  0  0  0  0  0 11  0  0
    3.2016   -1.8043    0.0000 H   0  0  0  0  0  0  0  0  0  0  0  0
    9.3017   -2.0060    0.0000 C   0  0  0  0  0  0  0  0  0  0  0  0
    7.9991   -1.2621    0.0000 C   0  0  0  0  0  0  0  0  0  0  0  0
    7.2552   -2.5647    0.0000 C   0  0  0  0  0  0  0  0  0  0  0  0
    5.7553   -2.5717    0.0000 C   0  0  0  0  0  0  0  0  0  0  0  0
    7.2430    0.0334    0.0000 O   0  0  0  0  0  0  0  0  0  0  0  0
    9.2946   -0.5060    0.0000 C   0  0  0  0  0  0  0  0  0  0  0  0
    5.7308    2.6244    0.0000 O   0  0  0  0  0  0  0  0  0  0  0  0
    4.9747    3.9198    0.0000 C   0  0  0  0  0  0  0  0  0  0  0  0
   -0.7130    1.2950    0.0000 H   0  0  0  0  0  0  0  0  0  0  0  0
   -3.2569   -0.0160    0.0000 C   0  0  0  0  0  0  0  0  0  0  0  0
   -1.7569   -0.0090    0.0000 O   0  0  0  0  0  0  0  0  0  0  0  0
   -1.0008   -1.3045    0.0000 C   0  0  0  0  0  0  0  0  0  0  0  0
    0.4992   -1.2974    0.0000 C   0  0  0  0  0  0  0  0  0  0  0  0
    1.2553   -2.5929    0.0000 C   0  0  0  0  0  0  0  0  0  0  0  0
    0.5114   -3.8955    0.0000 C   0  0  0  0  0  0  0  0  0  0  0  0
   -0.9886   -3.9025    0.0000 C   0  0  0  0  0  0  0  0  0  0  0  0
   -1.7447   -2.6070    0.0000 C   0  0  0  0  0  0  0  0  0  0  0  0
    2.7553   -2.5859    0.0000 O   0  0  0  0  0  0  0  0  0  0  0  0
    3.5114   -3.8813    0.0000 C   0  0  0  0  0  0  0  0  0  0  0  0
  1  2  1  0  0  0  0
  1  6  2  0  0  0  0
  2  3  2  0  0  0  0
  3  4  1  0  0  0  0
  4  5  2  0  0  0  0
  5  6  1  0  0  0  0
  5 11  1  0  0  0  0
  6  7  1  0  0  0  0
  7  8  2  0  0  0  0
  8  9  1  0  0  0  0
  9 10  2  0  0  0  0
  9 11  1  0  0  0  0
  1 12  1  0  0  0  0
 13 14  1  0  0  0  0
 14 15  1  0  0  0  0
 14 17  1  0  0  0  0
 14 18  1  0  0  0  0
 15 16  2  0  0  0  0
  2 16  1  0  0  0  0
  3 17  1  0  0  0  0
 19 20  1  0  0  0  0
  4 19  1  0  0  0  0
  8 21  1  0  0  0  0
 22 23  1  0  0  0  0
 23 24  1  0  0  0  0
 24 25  1  0  0  0  0
 24 29  2  0  0  0  0
 25 26  2  0  0  0  0
 26 27  1  0  0  0  0
 26 30  1  0  0  0  0
 27 28  2  0  0  0  0
 28 29  1  0  0  0  0
 30 31  1  0  0  0  0
  7 25  1  0  0  0  0
M  END
> <score_Kier1>
0.517732

$$$$
suggested molecule #480
 MOE2019            2D

 31 34  0  0  0  0  0  0  0  0999 V2000
    3.4992   -1.2833    0.0000 C   0  0  0  0  0  0  0  0  0  1  0  0
    4.9992   -1.2762    0.0000 C   0  0  0  0  0  0  0  0  0  2  0  0
    5.7430    0.0263    0.0000 C   0  0  0  0  0  0  0  0  0  3  0  0
    4.9869    1.3218    0.0000 C   0  0  0  0  0  0  0  0  0  4  0  0
    3.4870    1.3147    0.0000 C   0  0  0  0  0  0  0  0  0  5  0  0
    2.7431    0.0122    0.0000 C   0  0  0  0  0  0  0  0  0  6  0  0
    1.2431    0.0051    0.0000 C   0  0  0  0  0  0  0  0  0  7  0  0
    0.4870    1.3006    0.0000 C   0  0  0  0  0  0  0  0  0  8  0  0
    1.2309    2.6032    0.0000 C   0  0  0  0  0  0  0  0  0  9  0  0
    0.4748    3.8987    0.0000 O   0  0  0  0  0  0  0  0  0 10  0  0
    2.7309    2.6102    0.0000 O   0  0  0  0  0  0  0  0  0 11  0  0
    3.2016   -1.8043    0.0000 H   0  0  0  0  0  0  0  0  0  0  0  0
    9.3017   -2.0060    0.0000 C   0  0  0  0  0  0  0  0  0  0  0  0
    7.9991   -1.2621    0.0000 C   0  0  0  0  0  0  0  0  0  0  0  0
    7.2552   -2.5647    0.0000 C   0  0  0  0  0  0  0  0  0  0  0  0
    5.7553   -2.5717    0.0000 C   0  0  0  0  0  0  0  0  0  0  0  0
    7.2430    0.0334    0.0000 O   0  0  0  0  0  0  0  0  0  0  0  0
    9.2946   -0.5060    0.0000 C   0  0  0  0  0  0  0  0  0  0  0  0
    5.7308    2.6244    0.0000 O   0  0  0  0  0  0  0  0  0  0  0  0
    4.9747    3.9198    0.0000 C   0  0  0  0  0  0  0  0  0  0  0  0
   -0.7130    1.2950    0.0000 H   0  0  0  0  0  0  0  0  0  0  0  0
   -3.2569   -0.0160    0.0000 C   0  0  0  0  0  0  0  0  0  0  0  0
   -1.7569   -0.0090    0.0000 O   0  0  0  0  0  0  0  0  0  0  0  0
   -1.0008   -1.3045    0.0000 C   0  0  0  0  0  0  0  0  0  0  0  0
    0.4992   -1.2974    0.0000 C   0  0  0  0  0  0  0  0  0  0  0  0
    1.2553   -2.5929    0.0000 C   0  0  0  0  0  0  0  0  0  0  0  0
    0.5114   -3.8955    0.0000 C   0  0  0  0  0  0  0  0  0  0  0  0
   -0.9886   -3.9025    0.0000 C   0  0  0  0  0  0  0  0  0  0  0  0
   -1.7447   -2.6070    0.0000 C   0  0  0  0  0  0  0  0  0  0  0  0
    2.7553   -2.5859    0.0000 O   0  0  0  0  0  0  0  0  0  0  0  0
    3.5114   -3.8813    0.0000 C   0  0  0  0  0  0  0  0  0  0  0  0
  1  2  1  0  0  0  0
  1  6  2  0  0  0  0
  2  3  2  0  0  0  0
  3  4  1  0  0  0  0
  4  5  2  0  0  0  0
  5  6  1  0  0  0  0
  5 11  1  0  0  0  0
  6  7  1  0  0  0  0
  7  8  2  0  0  0  0
  8  9  1  0  0  0  0
  9 10  2  0  0  0  0
  9 11  1  0  0  0  0
  1 12  1  0  0  0  0
 13 14  1  0  0  0  0
 14 15  1  0  0  0  0
 14 17  1  0  0  0  0
 14 18  1  0  0  0  0
 15 16  2  0  0  0  0
  2 16  1  0  0  0  0
  3 17  1  0  0  0  0
 19 20  1  0  0  0  0
  4 19  1  0  0  0  0
  8 21  1  0  0  0  0
 22 23  1  0  0  0  0
 23 24  1  0  0  0  0
 24 25  1  0  0  0  0
 24 29  2  0  0  0  0
 25 26  2  0  0  0  0
 26 27  1  0  0  0  0
 26 30  1  0  0  0  0
 27 28  2  0  0  0  0
 28 29  1  0  0  0  0
 30 31  1  0  0  0  0
  7 25  1  0  0  0  0
M  END
> <score_Kier3>
0.511743

$$$$
suggested molecule #481
 MOE2019            2D

 31 34  0  0  0  0  0  0  0  0999 V2000
    3.4992   -1.2833    0.0000 C   0  0  0  0  0  0  0  0  0  1  0  0
    4.9992   -1.2762    0.0000 C   0  0  0  0  0  0  0  0  0  2  0  0
    5.7430    0.0263    0.0000 C   0  0  0  0  0  0  0  0  0  3  0  0
    4.9869    1.3218    0.0000 C   0  0  0  0  0  0  0  0  0  4  0  0
    3.4870    1.3147    0.0000 C   0  0  0  0  0  0  0  0  0  5  0  0
    2.7431    0.0122    0.0000 C   0  0  0  0  0  0  0  0  0  6  0  0
    1.2431    0.0051    0.0000 C   0  0  0  0  0  0  0  0  0  7  0  0
    0.4870    1.3006    0.0000 C   0  0  0  0  0  0  0  0  0  8  0  0
    1.2309    2.6032    0.0000 C   0  0  0  0  0  0  0  0  0  9  0  0
    0.4748    3.8987    0.0000 O   0  0  0  0  0  0  0  0  0 10  0  0
    2.7309    2.6102    0.0000 O   0  0  0  0  0  0  0  0  0 11  0  0
    3.2016   -1.8043    0.0000 H   0  0  0  0  0  0  0  0  0  0  0  0
    9.3017   -2.0060    0.0000 C   0  0  0  0  0  0  0  0  0  0  0  0
    7.9991   -1.2621    0.0000 C   0  0  0  0  0  0  0  0  0  0  0  0
    7.2552   -2.5647    0.0000 C   0  0  0  0  0  0  0  0  0  0  0  0
    5.7553   -2.5717    0.0000 C   0  0  0  0  0  0  0  0  0  0  0  0
    7.2430    0.0334    0.0000 O   0  0  0  0  0  0  0  0  0  0  0  0
    9.2946   -0.5060    0.0000 C   0  0  0  0  0  0  0  0  0  0  0  0
    5.7308    2.6244    0.0000 O   0  0  0  0  0  0  0  0  0  0  0  0
    4.9747    3.9198    0.0000 C   0  0  0  0  0  0  0  0  0  0  0  0
   -0.7130    1.2950    0.0000 H   0  0  0  0  0  0  0  0  0  0  0  0
   -3.2569   -0.0160    0.0000 C   0  0  0  0  0  0  0  0  0  0  0  0
   -1.7569   -0.0090    0.0000 O   0  0  0  0  0  0  0  0  0  0  0  0
   -1.0008   -1.3045    0.0000 C   0  0  0  0  0  0  0  0  0  0  0  0
    0.4992   -1.2974    0.0000 C   0  0  0  0  0  0  0  0  0  0  0  0
    1.2553   -2.5929    0.0000 C   0  0  0  0  0  0  0  0  0  0  0  0
    0.5114   -3.8955    0.0000 C   0  0  0  0  0  0  0  0  0  0  0  0
   -0.9886   -3.9025    0.0000 C   0  0  0  0  0  0  0  0  0  0  0  0
   -1.7447   -2.6070    0.0000 C   0  0  0  0  0  0  0  0  0  0  0  0
    2.7553   -2.5859    0.0000 O   0  0  0  0  0  0  0  0  0  0  0  0
    3.5114   -3.8813    0.0000 C   0  0  0  0  0  0  0  0  0  0  0  0
  1  2  1  0  0  0  0
  1  6  2  0  0  0  0
  2  3  2  0  0  0  0
  3  4  1  0  0  0  0
  4  5  2  0  0  0  0
  5  6  1  0  0  0  0
  5 11  1  0  0  0  0
  6  7  1  0  0  0  0
  7  8  2  0  0  0  0
  8  9  1  0  0  0  0
  9 10  2  0  0  0  0
  9 11  1  0  0  0  0
  1 12  1  0  0  0  0
 13 14  1  0  0  0  0
 14 15  1  0  0  0  0
 14 17  1  0  0  0  0
 14 18  1  0  0  0  0
 15 16  2  0  0  0  0
  2 16  1  0  0  0  0
  3 17  1  0  0  0  0
 19 20  1  0  0  0  0
  4 19  1  0  0  0  0
  8 21  1  0  0  0  0
 22 23  1  0  0  0  0
 23 24  1  0  0  0  0
 24 25  1  0  0  0  0
 24 29  2  0  0  0  0
 25 26  2  0  0  0  0
 26 27  1  0  0  0  0
 26 30  1  0  0  0  0
 27 28  2  0  0  0  0
 28 29  1  0  0  0  0
 30 31  1  0  0  0  0
  7 25  1  0  0  0  0
M  END
> <score_KierA1>
0.51778

$$$$
suggested molecule #482
 MOE2019            2D

 31 34  0  0  0  0  0  0  0  0999 V2000
    3.4992   -1.2833    0.0000 C   0  0  0  0  0  0  0  0  0  1  0  0
    4.9992   -1.2762    0.0000 C   0  0  0  0  0  0  0  0  0  2  0  0
    5.7430    0.0263    0.0000 C   0  0  0  0  0  0  0  0  0  3  0  0
    4.9869    1.3218    0.0000 C   0  0  0  0  0  0  0  0  0  4  0  0
    3.4870    1.3147    0.0000 C   0  0  0  0  0  0  0  0  0  5  0  0
    2.7431    0.0122    0.0000 C   0  0  0  0  0  0  0  0  0  6  0  0
    1.2431    0.0051    0.0000 C   0  0  0  0  0  0  0  0  0  7  0  0
    0.4870    1.3006    0.0000 C   0  0  0  0  0  0  0  0  0  8  0  0
    1.2309    2.6032    0.0000 C   0  0  0  0  0  0  0  0  0  9  0  0
    0.4748    3.8987    0.0000 O   0  0  0  0  0  0  0  0  0 10  0  0
    2.7309    2.6102    0.0000 O   0  0  0  0  0  0  0  0  0 11  0  0
    3.2016   -1.8043    0.0000 H   0  0  0  0  0  0  0  0  0  0  0  0
    9.3017   -2.0060    0.0000 C   0  0  0  0  0  0  0  0  0  0  0  0
    7.9991   -1.2621    0.0000 C   0  0  0  0  0  0  0  0  0  0  0  0
    7.2552   -2.5647    0.0000 C   0  0  0  0  0  0  0  0  0  0  0  0
    5.7553   -2.5717    0.0000 C   0  0  0  0  0  0  0  0  0  0  0  0
    7.2430    0.0334    0.0000 O   0  0  0  0  0  0  0  0  0  0  0  0
    9.2946   -0.5060    0.0000 C   0  0  0  0  0  0  0  0  0  0  0  0
    5.7308    2.6244    0.0000 O   0  0  0  0  0  0  0  0  0  0  0  0
    4.9747    3.9198    0.0000 C   0  0  0  0  0  0  0  0  0  0  0  0
   -0.7130    1.2950    0.0000 H   0  0  0  0  0  0  0  0  0  0  0  0
   -3.2569   -0.0160    0.0000 C   0  0  0  0  0  0  0  0  0  0  0  0
   -1.7569   -0.0090    0.0000 O   0  0  0  0  0  0  0  0  0  0  0  0
   -1.0008   -1.3045    0.0000 C   0  0  0  0  0  0  0  0  0  0  0  0
    0.4992   -1.2974    0.0000 C   0  0  0  0  0  0  0  0  0  0  0  0
    1.2553   -2.5929    0.0000 C   0  0  0  0  0  0  0  0  0  0  0  0
    0.5114   -3.8955    0.0000 C   0  0  0  0  0  0  0  0  0  0  0  0
   -0.9886   -3.9025    0.0000 C   0  0  0  0  0  0  0  0  0  0  0  0
   -1.7447   -2.6070    0.0000 C   0  0  0  0  0  0  0  0  0  0  0  0
    2.7553   -2.5859    0.0000 O   0  0  0  0  0  0  0  0  0  0  0  0
    3.5114   -3.8813    0.0000 C   0  0  0  0  0  0  0  0  0  0  0  0
  1  2  1  0  0  0  0
  1  6  2  0  0  0  0
  2  3  2  0  0  0  0
  3  4  1  0  0  0  0
  4  5  2  0  0  0  0
  5  6  1  0  0  0  0
  5 11  1  0  0  0  0
  6  7  1  0  0  0  0
  7  8  2  0  0  0  0
  8  9  1  0  0  0  0
  9 10  2  0  0  0  0
  9 11  1  0  0  0  0
  1 12  1  0  0  0  0
 13 14  1  0  0  0  0
 14 15  1  0  0  0  0
 14 17  1  0  0  0  0
 14 18  1  0  0  0  0
 15 16  2  0  0  0  0
  2 16  1  0  0  0  0
  3 17  1  0  0  0  0
 19 20  1  0  0  0  0
  4 19  1  0  0  0  0
  8 21  1  0  0  0  0
 22 23  1  0  0  0  0
 23 24  1  0  0  0  0
 24 25  1  0  0  0  0
 24 29  2  0  0  0  0
 25 26  2  0  0  0  0
 26 27  1  0  0  0  0
 26 30  1  0  0  0  0
 27 28  2  0  0  0  0
 28 29  1  0  0  0  0
 30 31  1  0  0  0  0
  7 25  1  0  0  0  0
M  END
> <score_KierA2>
0.516831

$$$$
suggested molecule #483
 MOE2019            2D

 31 34  0  0  0  0  0  0  0  0999 V2000
    3.4992   -1.2833    0.0000 C   0  0  0  0  0  0  0  0  0  1  0  0
    4.9992   -1.2762    0.0000 C   0  0  0  0  0  0  0  0  0  2  0  0
    5.7430    0.0263    0.0000 C   0  0  0  0  0  0  0  0  0  3  0  0
    4.9869    1.3218    0.0000 C   0  0  0  0  0  0  0  0  0  4  0  0
    3.4870    1.3147    0.0000 C   0  0  0  0  0  0  0  0  0  5  0  0
    2.7431    0.0122    0.0000 C   0  0  0  0  0  0  0  0  0  6  0  0
    1.2431    0.0051    0.0000 C   0  0  0  0  0  0  0  0  0  7  0  0
    0.4870    1.3006    0.0000 C   0  0  0  0  0  0  0  0  0  8  0  0
    1.2309    2.6032    0.0000 C   0  0  0  0  0  0  0  0  0  9  0  0
    0.4748    3.8987    0.0000 O   0  0  0  0  0  0  0  0  0 10  0  0
    2.7309    2.6102    0.0000 O   0  0  0  0  0  0  0  0  0 11  0  0
    3.2016   -1.8043    0.0000 H   0  0  0  0  0  0  0  0  0  0  0  0
    9.3017   -2.0060    0.0000 C   0  0  0  0  0  0  0  0  0  0  0  0
    7.9991   -1.2621    0.0000 C   0  0  0  0  0  0  0  0  0  0  0  0
    7.2552   -2.5647    0.0000 C   0  0  0  0  0  0  0  0  0  0  0  0
    5.7553   -2.5717    0.0000 C   0  0  0  0  0  0  0  0  0  0  0  0
    7.2430    0.0334    0.0000 O   0  0  0  0  0  0  0  0  0  0  0  0
    9.2946   -0.5060    0.0000 C   0  0  0  0  0  0  0  0  0  0  0  0
    5.7308    2.6244    0.0000 O   0  0  0  0  0  0  0  0  0  0  0  0
    4.9747    3.9198    0.0000 C   0  0  0  0  0  0  0  0  0  0  0  0
   -0.7130    1.2950    0.0000 H   0  0  0  0  0  0  0  0  0  0  0  0
   -3.2569   -0.0160    0.0000 C   0  0  0  0  0  0  0  0  0  0  0  0
   -1.7569   -0.0090    0.0000 O   0  0  0  0  0  0  0  0  0  0  0  0
   -1.0008   -1.3045    0.0000 C   0  0  0  0  0  0  0  0  0  0  0  0
    0.4992   -1.2974    0.0000 C   0  0  0  0  0  0  0  0  0  0  0  0
    1.2553   -2.5929    0.0000 C   0  0  0  0  0  0  0  0  0  0  0  0
    0.5114   -3.8955    0.0000 C   0  0  0  0  0  0  0  0  0  0  0  0
   -0.9886   -3.9025    0.0000 C   0  0  0  0  0  0  0  0  0  0  0  0
   -1.7447   -2.6070    0.0000 C   0  0  0  0  0  0  0  0  0  0  0  0
    2.7553   -2.5859    0.0000 O   0  0  0  0  0  0  0  0  0  0  0  0
    3.5114   -3.8813    0.0000 C   0  0  0  0  0  0  0  0  0  0  0  0
  1  2  1  0  0  0  0
  1  6  2  0  0  0  0
  2  3  2  0  0  0  0
  3  4  1  0  0  0  0
  4  5  2  0  0  0  0
  5  6  1  0  0  0  0
  5 11  1  0  0  0  0
  6  7  1  0  0  0  0
  7  8  2  0  0  0  0
  8  9  1  0  0  0  0
  9 10  2  0  0  0  0
  9 11  1  0  0  0  0
  1 12  1  0  0  0  0
 13 14  1  0  0  0  0
 14 15  1  0  0  0  0
 14 17  1  0  0  0  0
 14 18  1  0  0  0  0
 15 16  2  0  0  0  0
  2 16  1  0  0  0  0
  3 17  1  0  0  0  0
 19 20  1  0  0  0  0
  4 19  1  0  0  0  0
  8 21  1  0  0  0  0
 22 23  1  0  0  0  0
 23 24  1  0  0  0  0
 24 25  1  0  0  0  0
 24 29  2  0  0  0  0
 25 26  2  0  0  0  0
 26 27  1  0  0  0  0
 26 30  1  0  0  0  0
 27 28  2  0  0  0  0
 28 29  1  0  0  0  0
 30 31  1  0  0  0  0
  7 25  1  0  0  0  0
M  END
> <score_KierA3>
0.512461

$$$$
suggested molecule #484
 MOE2019            2D

 31 34  0  0  0  0  0  0  0  0999 V2000
    3.4992   -1.2833    0.0000 C   0  0  0  0  0  0  0  0  0  1  0  0
    4.9992   -1.2762    0.0000 C   0  0  0  0  0  0  0  0  0  2  0  0
    5.7430    0.0263    0.0000 C   0  0  0  0  0  0  0  0  0  3  0  0
    4.9869    1.3218    0.0000 C   0  0  0  0  0  0  0  0  0  4  0  0
    3.4870    1.3147    0.0000 C   0  0  0  0  0  0  0  0  0  5  0  0
    2.7431    0.0122    0.0000 C   0  0  0  0  0  0  0  0  0  6  0  0
    1.2431    0.0051    0.0000 C   0  0  0  0  0  0  0  0  0  7  0  0
    0.4870    1.3006    0.0000 C   0  0  0  0  0  0  0  0  0  8  0  0
    1.2309    2.6032    0.0000 C   0  0  0  0  0  0  0  0  0  9  0  0
    0.4748    3.8987    0.0000 O   0  0  0  0  0  0  0  0  0 10  0  0
    2.7309    2.6102    0.0000 O   0  0  0  0  0  0  0  0  0 11  0  0
    3.2016   -1.8043    0.0000 H   0  0  0  0  0  0  0  0  0  0  0  0
    9.3017   -2.0060    0.0000 C   0  0  0  0  0  0  0  0  0  0  0  0
    7.9991   -1.2621    0.0000 C   0  0  0  0  0  0  0  0  0  0  0  0
    7.2552   -2.5647    0.0000 C   0  0  0  0  0  0  0  0  0  0  0  0
    5.7553   -2.5717    0.0000 C   0  0  0  0  0  0  0  0  0  0  0  0
    7.2430    0.0334    0.0000 O   0  0  0  0  0  0  0  0  0  0  0  0
    9.2946   -0.5060    0.0000 C   0  0  0  0  0  0  0  0  0  0  0  0
    5.7308    2.6244    0.0000 O   0  0  0  0  0  0  0  0  0  0  0  0
    4.9747    3.9198    0.0000 C   0  0  0  0  0  0  0  0  0  0  0  0
   -0.7130    1.2950    0.0000 H   0  0  0  0  0  0  0  0  0  0  0  0
   -3.2569   -0.0160    0.0000 C   0  0  0  0  0  0  0  0  0  0  0  0
   -1.7569   -0.0090    0.0000 O   0  0  0  0  0  0  0  0  0  0  0  0
   -1.0008   -1.3045    0.0000 C   0  0  0  0  0  0  0  0  0  0  0  0
    0.4992   -1.2974    0.0000 C   0  0  0  0  0  0  0  0  0  0  0  0
    1.2553   -2.5929    0.0000 C   0  0  0  0  0  0  0  0  0  0  0  0
    0.5114   -3.8955    0.0000 C   0  0  0  0  0  0  0  0  0  0  0  0
   -0.9886   -3.9025    0.0000 C   0  0  0  0  0  0  0  0  0  0  0  0
   -1.7447   -2.6070    0.0000 C   0  0  0  0  0  0  0  0  0  0  0  0
    2.7553   -2.5859    0.0000 O   0  0  0  0  0  0  0  0  0  0  0  0
    3.5114   -3.8813    0.0000 C   0  0  0  0  0  0  0  0  0  0  0  0
  1  2  1  0  0  0  0
  1  6  2  0  0  0  0
  2  3  2  0  0  0  0
  3  4  1  0  0  0  0
  4  5  2  0  0  0  0
  5  6  1  0  0  0  0
  5 11  1  0  0  0  0
  6  7  1  0  0  0  0
  7  8  2  0  0  0  0
  8  9  1  0  0  0  0
  9 10  2  0  0  0  0
  9 11  1  0  0  0  0
  1 12  1  0  0  0  0
 13 14  1  0  0  0  0
 14 15  1  0  0  0  0
 14 17  1  0  0  0  0
 14 18  1  0  0  0  0
 15 16  2  0  0  0  0
  2 16  1  0  0  0  0
  3 17  1  0  0  0  0
 19 20  1  0  0  0  0
  4 19  1  0  0  0  0
  8 21  1  0  0  0  0
 22 23  1  0  0  0  0
 23 24  1  0  0  0  0
 24 25  1  0  0  0  0
 24 29  2  0  0  0  0
 25 26  2  0  0  0  0
 26 27  1  0  0  0  0
 26 30  1  0  0  0  0
 27 28  2  0  0  0  0
 28 29  1  0  0  0  0
 30 31  1  0  0  0  0
  7 25  1  0  0  0  0
M  END
> <score_KierFlex>
0.516587

$$$$
suggested molecule #485
 MOE2019            2D

 29 32  0  0  0  0  0  0  0  0999 V2000
    3.4992   -1.2833    0.0000 C   0  0  0  0  0  0  0  0  0  1  0  0
    4.9992   -1.2762    0.0000 C   0  0  0  0  0  0  0  0  0  2  0  0
    5.7430    0.0263    0.0000 C   0  0  0  0  0  0  0  0  0  3  0  0
    4.9869    1.3218    0.0000 C   0  0  0  0  0  0  0  0  0  4  0  0
    3.4870    1.3147    0.0000 C   0  0  0  0  0  0  0  0  0  5  0  0
    2.7431    0.0122    0.0000 C   0  0  0  0  0  0  0  0  0  6  0  0
    1.2431    0.0051    0.0000 C   0  0  0  0  0  0  0  0  0  7  0  0
    0.4870    1.3006    0.0000 C   0  0  0  0  0  0  0  0  0  8  0  0
    1.2309    2.6032    0.0000 C   0  0  0  0  0  0  0  0  0  9  0  0
    0.4748    3.8987    0.0000 O   0  0  0  0  0  0  0  0  0 10  0  0
    2.7309    2.6102    0.0000 O   0  0  0  0  0  0  0  0  0 11  0  0
    2.9041   -2.3253    0.0000 H   0  0  0  0  0  0  0  0  0  0  0  0
    9.2946   -0.5060    0.0000 C   0  0  0  0  0  0  0  0  0  0  0  0
    7.9991   -1.2621    0.0000 C   0  0  0  0  0  0  0  0  0  0  0  0
    7.2552   -2.5647    0.0000 C   0  0  0  0  0  0  0  0  0  0  0  0
    5.7553   -2.5717    0.0000 C   0  0  0  0  0  0  0  0  0  0  0  0
    7.2430    0.0334    0.0000 O   0  0  0  0  0  0  0  0  0  0  0  0
    9.3017   -2.0060    0.0000 C   0  0  0  0  0  0  0  0  0  0  0  0
    5.7308    2.6244    0.0000 O   0  0  0  0  0  0  0  0  0  0  0  0
    4.9747    3.9198    0.0000 C   0  0  0  0  0  0  0  0  0  0  0  0
   -0.7130    1.2950    0.0000 H   0  0  0  0  0  0  0  0  0  0  0  0
   -3.2569   -0.0160    0.0000 C   0  0  0  0  0  0  0  0  0  0  0  0
   -1.7569   -0.0090    0.0000 O   0  0  0  0  0  0  0  0  0  0  0  0
   -1.0008   -1.3045    0.0000 C   0  0  0  0  0  0  0  0  0  0  0  0
   -1.7447   -2.6070    0.0000 C   0  0  0  0  0  0  0  0  0  0  0  0
   -0.9886   -3.9025    0.0000 C   0  0  0  0  0  0  0  0  0  0  0  0
    0.5114   -3.8955    0.0000 C   0  0  0  0  0  0  0  0  0  0  0  0
    1.2553   -2.5929    0.0000 C   0  0  0  0  0  0  0  0  0  0  0  0
    0.4992   -1.2974    0.0000 C   0  0  0  0  0  0  0  0  0  0  0  0
  1  2  1  0  0  0  0
  1  6  2  0  0  0  0
  2  3  2  0  0  0  0
  3  4  1  0  0  0  0
  4  5  2  0  0  0  0
  5  6  1  0  0  0  0
  5 11  1  0  0  0  0
  6  7  1  0  0  0  0
  7  8  2  0  0  0  0
  8  9  1  0  0  0  0
  9 10  2  0  0  0  0
  9 11  1  0  0  0  0
  1 12  1  0  0  0  0
 13 14  1  0  0  0  0
 14 15  1  0  0  0  0
 14 17  1  0  0  0  0
 14 18  1  0  0  0  0
 15 16  2  0  0  0  0
  2 16  1  0  0  0  0
  3 17  1  0  0  0  0
 19 20  1  0  0  0  0
  4 19  1  0  0  0  0
  8 21  1  0  0  0  0
 22 23  1  0  0  0  0
 23 24  1  0  0  0  0
 24 25  1  0  0  0  0
 24 29  2  0  0  0  0
 25 26  2  0  0  0  0
 26 27  1  0  0  0  0
 27 28  2  0  0  0  0
 28 29  1  0  0  0  0
  7 29  1  0  0  0  0
M  END
> <score_Kier1>
0.517778

$$$$
suggested molecule #486
 MOE2019            2D

 29 32  0  0  0  0  0  0  0  0999 V2000
    3.4992   -1.2833    0.0000 C   0  0  0  0  0  0  0  0  0  1  0  0
    4.9992   -1.2762    0.0000 C   0  0  0  0  0  0  0  0  0  2  0  0
    5.7430    0.0263    0.0000 C   0  0  0  0  0  0  0  0  0  3  0  0
    4.9869    1.3218    0.0000 C   0  0  0  0  0  0  0  0  0  4  0  0
    3.4870    1.3147    0.0000 C   0  0  0  0  0  0  0  0  0  5  0  0
    2.7431    0.0122    0.0000 C   0  0  0  0  0  0  0  0  0  6  0  0
    1.2431    0.0051    0.0000 C   0  0  0  0  0  0  0  0  0  7  0  0
    0.4870    1.3006    0.0000 C   0  0  0  0  0  0  0  0  0  8  0  0
    1.2309    2.6032    0.0000 C   0  0  0  0  0  0  0  0  0  9  0  0
    0.4748    3.8987    0.0000 O   0  0  0  0  0  0  0  0  0 10  0  0
    2.7309    2.6102    0.0000 O   0  0  0  0  0  0  0  0  0 11  0  0
    2.9041   -2.3253    0.0000 H   0  0  0  0  0  0  0  0  0  0  0  0
    9.2946   -0.5060    0.0000 C   0  0  0  0  0  0  0  0  0  0  0  0
    7.9991   -1.2621    0.0000 C   0  0  0  0  0  0  0  0  0  0  0  0
    7.2552   -2.5647    0.0000 C   0  0  0  0  0  0  0  0  0  0  0  0
    5.7553   -2.5717    0.0000 C   0  0  0  0  0  0  0  0  0  0  0  0
    7.2430    0.0334    0.0000 O   0  0  0  0  0  0  0  0  0  0  0  0
    9.3017   -2.0060    0.0000 C   0  0  0  0  0  0  0  0  0  0  0  0
    5.7308    2.6244    0.0000 O   0  0  0  0  0  0  0  0  0  0  0  0
    4.9747    3.9198    0.0000 C   0  0  0  0  0  0  0  0  0  0  0  0
   -0.7130    1.2950    0.0000 H   0  0  0  0  0  0  0  0  0  0  0  0
   -3.2569   -0.0160    0.0000 C   0  0  0  0  0  0  0  0  0  0  0  0
   -1.7569   -0.0090    0.0000 O   0  0  0  0  0  0  0  0  0  0  0  0
   -1.0008   -1.3045    0.0000 C   0  0  0  0  0  0  0  0  0  0  0  0
   -1.7447   -2.6070    0.0000 C   0  0  0  0  0  0  0  0  0  0  0  0
   -0.9886   -3.9025    0.0000 C   0  0  0  0  0  0  0  0  0  0  0  0
    0.5114   -3.8955    0.0000 C   0  0  0  0  0  0  0  0  0  0  0  0
    1.2553   -2.5929    0.0000 C   0  0  0  0  0  0  0  0  0  0  0  0
    0.4992   -1.2974    0.0000 C   0  0  0  0  0  0  0  0  0  0  0  0
  1  2  1  0  0  0  0
  1  6  2  0  0  0  0
  2  3  2  0  0  0  0
  3  4  1  0  0  0  0
  4  5  2  0  0  0  0
  5  6  1  0  0  0  0
  5 11  1  0  0  0  0
  6  7  1  0  0  0  0
  7  8  2  0  0  0  0
  8  9  1  0  0  0  0
  9 10  2  0  0  0  0
  9 11  1  0  0  0  0
  1 12  1  0  0  0  0
 13 14  1  0  0  0  0
 14 15  1  0  0  0  0
 14 17  1  0  0  0  0
 14 18  1  0  0  0  0
 15 16  2  0  0  0  0
  2 16  1  0  0  0  0
  3 17  1  0  0  0  0
 19 20  1  0  0  0  0
  4 19  1  0  0  0  0
  8 21  1  0  0  0  0
 22 23  1  0  0  0  0
 23 24  1  0  0  0  0
 24 25  1  0  0  0  0
 24 29  2  0  0  0  0
 25 26  2  0  0  0  0
 26 27  1  0  0  0  0
 27 28  2  0  0  0  0
 28 29  1  0  0  0  0
  7 29  1  0  0  0  0
M  END
> <score_Kier2>
0.516466

$$$$
suggested molecule #487
 MOE2019            2D

 29 32  0  0  0  0  0  0  0  0999 V2000
    3.4992   -1.2833    0.0000 C   0  0  0  0  0  0  0  0  0  1  0  0
    4.9992   -1.2762    0.0000 C   0  0  0  0  0  0  0  0  0  2  0  0
    5.7430    0.0263    0.0000 C   0  0  0  0  0  0  0  0  0  3  0  0
    4.9869    1.3218    0.0000 C   0  0  0  0  0  0  0  0  0  4  0  0
    3.4870    1.3147    0.0000 C   0  0  0  0  0  0  0  0  0  5  0  0
    2.7431    0.0122    0.0000 C   0  0  0  0  0  0  0  0  0  6  0  0
    1.2431    0.0051    0.0000 C   0  0  0  0  0  0  0  0  0  7  0  0
    0.4870    1.3006    0.0000 C   0  0  0  0  0  0  0  0  0  8  0  0
    1.2309    2.6032    0.0000 C   0  0  0  0  0  0  0  0  0  9  0  0
    0.4748    3.8987    0.0000 O   0  0  0  0  0  0  0  0  0 10  0  0
    2.7309    2.6102    0.0000 O   0  0  0  0  0  0  0  0  0 11  0  0
    2.9041   -2.3253    0.0000 H   0  0  0  0  0  0  0  0  0  0  0  0
    9.2946   -0.5060    0.0000 C   0  0  0  0  0  0  0  0  0  0  0  0
    7.9991   -1.2621    0.0000 C   0  0  0  0  0  0  0  0  0  0  0  0
    7.2552   -2.5647    0.0000 C   0  0  0  0  0  0  0  0  0  0  0  0
    5.7553   -2.5717    0.0000 C   0  0  0  0  0  0  0  0  0  0  0  0
    7.2430    0.0334    0.0000 O   0  0  0  0  0  0  0  0  0  0  0  0
    9.3017   -2.0060    0.0000 C   0  0  0  0  0  0  0  0  0  0  0  0
    5.7308    2.6244    0.0000 O   0  0  0  0  0  0  0  0  0  0  0  0
    4.9747    3.9198    0.0000 C   0  0  0  0  0  0  0  0  0  0  0  0
   -0.7130    1.2950    0.0000 H   0  0  0  0  0  0  0  0  0  0  0  0
   -3.2569   -0.0160    0.0000 C   0  0  0  0  0  0  0  0  0  0  0  0
   -1.7569   -0.0090    0.0000 O   0  0  0  0  0  0  0  0  0  0  0  0
   -1.0008   -1.3045    0.0000 C   0  0  0  0  0  0  0  0  0  0  0  0
   -1.7447   -2.6070    0.0000 C   0  0  0  0  0  0  0  0  0  0  0  0
   -0.9886   -3.9025    0.0000 C   0  0  0  0  0  0  0  0  0  0  0  0
    0.5114   -3.8955    0.0000 C   0  0  0  0  0  0  0  0  0  0  0  0
    1.2553   -2.5929    0.0000 C   0  0  0  0  0  0  0  0  0  0  0  0
    0.4992   -1.2974    0.0000 C   0  0  0  0  0  0  0  0  0  0  0  0
  1  2  1  0  0  0  0
  1  6  2  0  0  0  0
  2  3  2  0  0  0  0
  3  4  1  0  0  0  0
  4  5  2  0  0  0  0
  5  6  1  0  0  0  0
  5 11  1  0  0  0  0
  6  7  1  0  0  0  0
  7  8  2  0  0  0  0
  8  9  1  0  0  0  0
  9 10  2  0  0  0  0
  9 11  1  0  0  0  0
  1 12  1  0  0  0  0
 13 14  1  0  0  0  0
 14 15  1  0  0  0  0
 14 17  1  0  0  0  0
 14 18  1  0  0  0  0
 15 16  2  0  0  0  0
  2 16  1  0  0  0  0
  3 17  1  0  0  0  0
 19 20  1  0  0  0  0
  4 19  1  0  0  0  0
  8 21  1  0  0  0  0
 22 23  1  0  0  0  0
 23 24  1  0  0  0  0
 24 25  1  0  0  0  0
 24 29  2  0  0  0  0
 25 26  2  0  0  0  0
 26 27  1  0  0  0  0
 27 28  2  0  0  0  0
 28 29  1  0  0  0  0
  7 29  1  0  0  0  0
M  END
> <score_Kier3>
0.511783

$$$$
suggested molecule #488
 MOE2019            2D

 29 32  0  0  0  0  0  0  0  0999 V2000
    3.4992   -1.2833    0.0000 C   0  0  0  0  0  0  0  0  0  1  0  0
    4.9992   -1.2762    0.0000 C   0  0  0  0  0  0  0  0  0  2  0  0
    5.7430    0.0263    0.0000 C   0  0  0  0  0  0  0  0  0  3  0  0
    4.9869    1.3218    0.0000 C   0  0  0  0  0  0  0  0  0  4  0  0
    3.4870    1.3147    0.0000 C   0  0  0  0  0  0  0  0  0  5  0  0
    2.7431    0.0122    0.0000 C   0  0  0  0  0  0  0  0  0  6  0  0
    1.2431    0.0051    0.0000 C   0  0  0  0  0  0  0  0  0  7  0  0
    0.4870    1.3006    0.0000 C   0  0  0  0  0  0  0  0  0  8  0  0
    1.2309    2.6032    0.0000 C   0  0  0  0  0  0  0  0  0  9  0  0
    0.4748    3.8987    0.0000 O   0  0  0  0  0  0  0  0  0 10  0  0
    2.7309    2.6102    0.0000 O   0  0  0  0  0  0  0  0  0 11  0  0
    2.9041   -2.3253    0.0000 H   0  0  0  0  0  0  0  0  0  0  0  0
    9.2946   -0.5060    0.0000 C   0  0  0  0  0  0  0  0  0  0  0  0
    7.9991   -1.2621    0.0000 C   0  0  0  0  0  0  0  0  0  0  0  0
    7.2552   -2.5647    0.0000 C   0  0  0  0  0  0  0  0  0  0  0  0
    5.7553   -2.5717    0.0000 C   0  0  0  0  0  0  0  0  0  0  0  0
    7.2430    0.0334    0.0000 O   0  0  0  0  0  0  0  0  0  0  0  0
    9.3017   -2.0060    0.0000 C   0  0  0  0  0  0  0  0  0  0  0  0
    5.7308    2.6244    0.0000 O   0  0  0  0  0  0  0  0  0  0  0  0
    4.9747    3.9198    0.0000 C   0  0  0  0  0  0  0  0  0  0  0  0
   -0.7130    1.2950    0.0000 H   0  0  0  0  0  0  0  0  0  0  0  0
   -3.2569   -0.0160    0.0000 C   0  0  0  0  0  0  0  0  0  0  0  0
   -1.7569   -0.0090    0.0000 O   0  0  0  0  0  0  0  0  0  0  0  0
   -1.0008   -1.3045    0.0000 C   0  0  0  0  0  0  0  0  0  0  0  0
   -1.7447   -2.6070    0.0000 C   0  0  0  0  0  0  0  0  0  0  0  0
   -0.9886   -3.9025    0.0000 C   0  0  0  0  0  0  0  0  0  0  0  0
    0.5114   -3.8955    0.0000 C   0  0  0  0  0  0  0  0  0  0  0  0
    1.2553   -2.5929    0.0000 C   0  0  0  0  0  0  0  0  0  0  0  0
    0.4992   -1.2974    0.0000 C   0  0  0  0  0  0  0  0  0  0  0  0
  1  2  1  0  0  0  0
  1  6  2  0  0  0  0
  2  3  2  0  0  0  0
  3  4  1  0  0  0  0
  4  5  2  0  0  0  0
  5  6  1  0  0  0  0
  5 11  1  0  0  0  0
  6  7  1  0  0  0  0
  7  8  2  0  0  0  0
  8  9  1  0  0  0  0
  9 10  2  0  0  0  0
  9 11  1  0  0  0  0
  1 12  1  0  0  0  0
 13 14  1  0  0  0  0
 14 15  1  0  0  0  0
 14 17  1  0  0  0  0
 14 18  1  0  0  0  0
 15 16  2  0  0  0  0
  2 16  1  0  0  0  0
  3 17  1  0  0  0  0
 19 20  1  0  0  0  0
  4 19  1  0  0  0  0
  8 21  1  0  0  0  0
 22 23  1  0  0  0  0
 23 24  1  0  0  0  0
 24 25  1  0  0  0  0
 24 29  2  0  0  0  0
 25 26  2  0  0  0  0
 26 27  1  0  0  0  0
 27 28  2  0  0  0  0
 28 29  1  0  0  0  0
  7 29  1  0  0  0  0
M  END
> <score_KierA1>
0.517842

$$$$
suggested molecule #489
 MOE2019            2D

 29 32  0  0  0  0  0  0  0  0999 V2000
    3.4992   -1.2833    0.0000 C   0  0  0  0  0  0  0  0  0  1  0  0
    4.9992   -1.2762    0.0000 C   0  0  0  0  0  0  0  0  0  2  0  0
    5.7430    0.0263    0.0000 C   0  0  0  0  0  0  0  0  0  3  0  0
    4.9869    1.3218    0.0000 C   0  0  0  0  0  0  0  0  0  4  0  0
    3.4870    1.3147    0.0000 C   0  0  0  0  0  0  0  0  0  5  0  0
    2.7431    0.0122    0.0000 C   0  0  0  0  0  0  0  0  0  6  0  0
    1.2431    0.0051    0.0000 C   0  0  0  0  0  0  0  0  0  7  0  0
    0.4870    1.3006    0.0000 C   0  0  0  0  0  0  0  0  0  8  0  0
    1.2309    2.6032    0.0000 C   0  0  0  0  0  0  0  0  0  9  0  0
    0.4748    3.8987    0.0000 O   0  0  0  0  0  0  0  0  0 10  0  0
    2.7309    2.6102    0.0000 O   0  0  0  0  0  0  0  0  0 11  0  0
    2.9041   -2.3253    0.0000 H   0  0  0  0  0  0  0  0  0  0  0  0
    9.2946   -0.5060    0.0000 C   0  0  0  0  0  0  0  0  0  0  0  0
    7.9991   -1.2621    0.0000 C   0  0  0  0  0  0  0  0  0  0  0  0
    7.2552   -2.5647    0.0000 C   0  0  0  0  0  0  0  0  0  0  0  0
    5.7553   -2.5717    0.0000 C   0  0  0  0  0  0  0  0  0  0  0  0
    7.2430    0.0334    0.0000 O   0  0  0  0  0  0  0  0  0  0  0  0
    9.3017   -2.0060    0.0000 C   0  0  0  0  0  0  0  0  0  0  0  0
    5.7308    2.6244    0.0000 O   0  0  0  0  0  0  0  0  0  0  0  0
    4.9747    3.9198    0.0000 C   0  0  0  0  0  0  0  0  0  0  0  0
   -0.7130    1.2950    0.0000 H   0  0  0  0  0  0  0  0  0  0  0  0
   -3.2569   -0.0160    0.0000 C   0  0  0  0  0  0  0  0  0  0  0  0
   -1.7569   -0.0090    0.0000 O   0  0  0  0  0  0  0  0  0  0  0  0
   -1.0008   -1.3045    0.0000 C   0  0  0  0  0  0  0  0  0  0  0  0
   -1.7447   -2.6070    0.0000 C   0  0  0  0  0  0  0  0  0  0  0  0
   -0.9886   -3.9025    0.0000 C   0  0  0  0  0  0  0  0  0  0  0  0
    0.5114   -3.8955    0.0000 C   0  0  0  0  0  0  0  0  0  0  0  0
    1.2553   -2.5929    0.0000 C   0  0  0  0  0  0  0  0  0  0  0  0
    0.4992   -1.2974    0.0000 C   0  0  0  0  0  0  0  0  0  0  0  0
  1  2  1  0  0  0  0
  1  6  2  0  0  0  0
  2  3  2  0  0  0  0
  3  4  1  0  0  0  0
  4  5  2  0  0  0  0
  5  6  1  0  0  0  0
  5 11  1  0  0  0  0
  6  7  1  0  0  0  0
  7  8  2  0  0  0  0
  8  9  1  0  0  0  0
  9 10  2  0  0  0  0
  9 11  1  0  0  0  0
  1 12  1  0  0  0  0
 13 14  1  0  0  0  0
 14 15  1  0  0  0  0
 14 17  1  0  0  0  0
 14 18  1  0  0  0  0
 15 16  2  0  0  0  0
  2 16  1  0  0  0  0
  3 17  1  0  0  0  0
 19 20  1  0  0  0  0
  4 19  1  0  0  0  0
  8 21  1  0  0  0  0
 22 23  1  0  0  0  0
 23 24  1  0  0  0  0
 24 25  1  0  0  0  0
 24 29  2  0  0  0  0
 25 26  2  0  0  0  0
 26 27  1  0  0  0  0
 27 28  2  0  0  0  0
 28 29  1  0  0  0  0
  7 29  1  0  0  0  0
M  END
> <score_KierA2>
0.516879

$$$$
suggested molecule #490
 MOE2019            2D

 29 32  0  0  0  0  0  0  0  0999 V2000
    3.4992   -1.2833    0.0000 C   0  0  0  0  0  0  0  0  0  1  0  0
    4.9992   -1.2762    0.0000 C   0  0  0  0  0  0  0  0  0  2  0  0
    5.7430    0.0263    0.0000 C   0  0  0  0  0  0  0  0  0  3  0  0
    4.9869    1.3218    0.0000 C   0  0  0  0  0  0  0  0  0  4  0  0
    3.4870    1.3147    0.0000 C   0  0  0  0  0  0  0  0  0  5  0  0
    2.7431    0.0122    0.0000 C   0  0  0  0  0  0  0  0  0  6  0  0
    1.2431    0.0051    0.0000 C   0  0  0  0  0  0  0  0  0  7  0  0
    0.4870    1.3006    0.0000 C   0  0  0  0  0  0  0  0  0  8  0  0
    1.2309    2.6032    0.0000 C   0  0  0  0  0  0  0  0  0  9  0  0
    0.4748    3.8987    0.0000 O   0  0  0  0  0  0  0  0  0 10  0  0
    2.7309    2.6102    0.0000 O   0  0  0  0  0  0  0  0  0 11  0  0
    2.9041   -2.3253    0.0000 H   0  0  0  0  0  0  0  0  0  0  0  0
    9.2946   -0.5060    0.0000 C   0  0  0  0  0  0  0  0  0  0  0  0
    7.9991   -1.2621    0.0000 C   0  0  0  0  0  0  0  0  0  0  0  0
    7.2552   -2.5647    0.0000 C   0  0  0  0  0  0  0  0  0  0  0  0
    5.7553   -2.5717    0.0000 C   0  0  0  0  0  0  0  0  0  0  0  0
    7.2430    0.0334    0.0000 O   0  0  0  0  0  0  0  0  0  0  0  0
    9.3017   -2.0060    0.0000 C   0  0  0  0  0  0  0  0  0  0  0  0
    5.7308    2.6244    0.0000 O   0  0  0  0  0  0  0  0  0  0  0  0
    4.9747    3.9198    0.0000 C   0  0  0  0  0  0  0  0  0  0  0  0
   -0.7130    1.2950    0.0000 H   0  0  0  0  0  0  0  0  0  0  0  0
   -3.2569   -0.0160    0.0000 C   0  0  0  0  0  0  0  0  0  0  0  0
   -1.7569   -0.0090    0.0000 O   0  0  0  0  0  0  0  0  0  0  0  0
   -1.0008   -1.3045    0.0000 C   0  0  0  0  0  0  0  0  0  0  0  0
   -1.7447   -2.6070    0.0000 C   0  0  0  0  0  0  0  0  0  0  0  0
   -0.9886   -3.9025    0.0000 C   0  0  0  0  0  0  0  0  0  0  0  0
    0.5114   -3.8955    0.0000 C   0  0  0  0  0  0  0  0  0  0  0  0
    1.2553   -2.5929    0.0000 C   0  0  0  0  0  0  0  0  0  0  0  0
    0.4992   -1.2974    0.0000 C   0  0  0  0  0  0  0  0  0  0  0  0
  1  2  1  0  0  0  0
  1  6  2  0  0  0  0
  2  3  2  0  0  0  0
  3  4  1  0  0  0  0
  4  5  2  0  0  0  0
  5  6  1  0  0  0  0
  5 11  1  0  0  0  0
  6  7  1  0  0  0  0
  7  8  2  0  0  0  0
  8  9  1  0  0  0  0
  9 10  2  0  0  0  0
  9 11  1  0  0  0  0
  1 12  1  0  0  0  0
 13 14  1  0  0  0  0
 14 15  1  0  0  0  0
 14 17  1  0  0  0  0
 14 18  1  0  0  0  0
 15 16  2  0  0  0  0
  2 16  1  0  0  0  0
  3 17  1  0  0  0  0
 19 20  1  0  0  0  0
  4 19  1  0  0  0  0
  8 21  1  0  0  0  0
 22 23  1  0  0  0  0
 23 24  1  0  0  0  0
 24 25  1  0  0  0  0
 24 29  2  0  0  0  0
 25 26  2  0  0  0  0
 26 27  1  0  0  0  0
 27 28  2  0  0  0  0
 28 29  1  0  0  0  0
  7 29  1  0  0  0  0
M  END
> <score_KierA3>
0.512516

$$$$
suggested molecule #491
 MOE2019            2D

 29 32  0  0  0  0  0  0  0  0999 V2000
    3.4992   -1.2833    0.0000 C   0  0  0  0  0  0  0  0  0  1  0  0
    4.9992   -1.2762    0.0000 C   0  0  0  0  0  0  0  0  0  2  0  0
    5.7430    0.0263    0.0000 C   0  0  0  0  0  0  0  0  0  3  0  0
    4.9869    1.3218    0.0000 C   0  0  0  0  0  0  0  0  0  4  0  0
    3.4870    1.3147    0.0000 C   0  0  0  0  0  0  0  0  0  5  0  0
    2.7431    0.0122    0.0000 C   0  0  0  0  0  0  0  0  0  6  0  0
    1.2431    0.0051    0.0000 C   0  0  0  0  0  0  0  0  0  7  0  0
    0.4870    1.3006    0.0000 C   0  0  0  0  0  0  0  0  0  8  0  0
    1.2309    2.6032    0.0000 C   0  0  0  0  0  0  0  0  0  9  0  0
    0.4748    3.8987    0.0000 O   0  0  0  0  0  0  0  0  0 10  0  0
    2.7309    2.6102    0.0000 O   0  0  0  0  0  0  0  0  0 11  0  0
    2.9041   -2.3253    0.0000 H   0  0  0  0  0  0  0  0  0  0  0  0
    9.2946   -0.5060    0.0000 C   0  0  0  0  0  0  0  0  0  0  0  0
    7.9991   -1.2621    0.0000 C   0  0  0  0  0  0  0  0  0  0  0  0
    7.2552   -2.5647    0.0000 C   0  0  0  0  0  0  0  0  0  0  0  0
    5.7553   -2.5717    0.0000 C   0  0  0  0  0  0  0  0  0  0  0  0
    7.2430    0.0334    0.0000 O   0  0  0  0  0  0  0  0  0  0  0  0
    9.3017   -2.0060    0.0000 C   0  0  0  0  0  0  0  0  0  0  0  0
    5.7308    2.6244    0.0000 O   0  0  0  0  0  0  0  0  0  0  0  0
    4.9747    3.9198    0.0000 C   0  0  0  0  0  0  0  0  0  0  0  0
   -0.7130    1.2950    0.0000 H   0  0  0  0  0  0  0  0  0  0  0  0
   -3.2569   -0.0160    0.0000 C   0  0  0  0  0  0  0  0  0  0  0  0
   -1.7569   -0.0090    0.0000 O   0  0  0  0  0  0  0  0  0  0  0  0
   -1.0008   -1.3045    0.0000 C   0  0  0  0  0  0  0  0  0  0  0  0
   -1.7447   -2.6070    0.0000 C   0  0  0  0  0  0  0  0  0  0  0  0
   -0.9886   -3.9025    0.0000 C   0  0  0  0  0  0  0  0  0  0  0  0
    0.5114   -3.8955    0.0000 C   0  0  0  0  0  0  0  0  0  0  0  0
    1.2553   -2.5929    0.0000 C   0  0  0  0  0  0  0  0  0  0  0  0
    0.4992   -1.2974    0.0000 C   0  0  0  0  0  0  0  0  0  0  0  0
  1  2  1  0  0  0  0
  1  6  2  0  0  0  0
  2  3  2  0  0  0  0
  3  4  1  0  0  0  0
  4  5  2  0  0  0  0
  5  6  1  0  0  0  0
  5 11  1  0  0  0  0
  6  7  1  0  0  0  0
  7  8  2  0  0  0  0
  8  9  1  0  0  0  0
  9 10  2  0  0  0  0
  9 11  1  0  0  0  0
  1 12  1  0  0  0  0
 13 14  1  0  0  0  0
 14 15  1  0  0  0  0
 14 17  1  0  0  0  0
 14 18  1  0  0  0  0
 15 16  2  0  0  0  0
  2 16  1  0  0  0  0
  3 17  1  0  0  0  0
 19 20  1  0  0  0  0
  4 19  1  0  0  0  0
  8 21  1  0  0  0  0
 22 23  1  0  0  0  0
 23 24  1  0  0  0  0
 24 25  1  0  0  0  0
 24 29  2  0  0  0  0
 25 26  2  0  0  0  0
 26 27  1  0  0  0  0
 27 28  2  0  0  0  0
 28 29  1  0  0  0  0
  7 29  1  0  0  0  0
M  END
> <score_KierFlex>
0.516655

$$$$
suggested molecule #492
 MOE2019            2D

 30 33  0  0  0  0  0  0  0  0999 V2000
    3.4992   -1.2833    0.0000 C   0  0  0  0  0  0  0  0  0  1  0  0
    4.9992   -1.2762    0.0000 C   0  0  0  0  0  0  0  0  0  2  0  0
    5.7430    0.0263    0.0000 C   0  0  0  0  0  0  0  0  0  3  0  0
    4.9869    1.3218    0.0000 C   0  0  0  0  0  0  0  0  0  4  0  0
    3.4870    1.3147    0.0000 C   0  0  0  0  0  0  0  0  0  5  0  0
    2.7431    0.0122    0.0000 C   0  0  0  0  0  0  0  0  0  6  0  0
    1.2431    0.0051    0.0000 C   0  0  0  0  0  0  0  0  0  7  0  0
    0.4870    1.3006    0.0000 C   0  0  0  0  0  0  0  0  0  8  0  0
    1.2309    2.6032    0.0000 C   0  0  0  0  0  0  0  0  0  9  0  0
    0.4748    3.8987    0.0000 O   0  0  0  0  0  0  0  0  0 10  0  0
    2.7309    2.6102    0.0000 O   0  0  0  0  0  0  0  0  0 11  0  0
    3.2016   -1.8043    0.0000 H   0  0  0  0  0  0  0  0  0  0  0  0
    9.2946   -0.5060    0.0000 C   0  0  0  0  0  0  0  0  0  0  0  0
    7.9991   -1.2621    0.0000 C   0  0  0  0  0  0  0  0  0  0  0  0
    7.2552   -2.5647    0.0000 C   0  0  0  0  0  0  0  0  0  0  0  0
    5.7553   -2.5717    0.0000 C   0  0  0  0  0  0  0  0  0  0  0  0
    7.2430    0.0334    0.0000 O   0  0  0  0  0  0  0  0  0  0  0  0
    9.3017   -2.0060    0.0000 C   0  0  0  0  0  0  0  0  0  0  0  0
    5.7308    2.6244    0.0000 O   0  0  0  0  0  0  0  0  0  0  0  0
    4.9747    3.9198    0.0000 C   0  0  0  0  0  0  0  0  0  0  0  0
   -0.7130    1.2950    0.0000 H   0  0  0  0  0  0  0  0  0  0  0  0
   -3.2569   -0.0160    0.0000 C   0  0  0  0  0  0  0  0  0  0  0  0
   -1.7569   -0.0090    0.0000 O   0  0  0  0  0  0  0  0  0  0  0  0
   -1.0008   -1.3045    0.0000 C   0  0  0  0  0  0  0  0  0  0  0  0
   -1.7447   -2.6070    0.0000 C   0  0  0  0  0  0  0  0  0  0  0  0
   -0.9886   -3.9025    0.0000 C   0  0  0  0  0  0  0  0  0  0  0  0
    0.5114   -3.8955    0.0000 C   0  0  0  0  0  0  0  0  0  0  0  0
    1.2553   -2.5929    0.0000 C   0  0  0  0  0  0  0  0  0  0  0  0
    0.4992   -1.2974    0.0000 C   0  0  0  0  0  0  0  0  0  0  0  0
    2.7553   -2.5859    0.0000 O   0  0  0  0  0  0  0  0  0  0  0  0
  1  2  1  0  0  0  0
  1  6  2  0  0  0  0
  2  3  2  0  0  0  0
  3  4  1  0  0  0  0
  4  5  2  0  0  0  0
  5  6  1  0  0  0  0
  5 11  1  0  0  0  0
  6  7  1  0  0  0  0
  7  8  2  0  0  0  0
  8  9  1  0  0  0  0
  9 10  2  0  0  0  0
  9 11  1  0  0  0  0
  1 12  1  0  0  0  0
 13 14  1  0  0  0  0
 14 15  1  0  0  0  0
 14 17  1  0  0  0  0
 14 18  1  0  0  0  0
 15 16  2  0  0  0  0
  2 16  1  0  0  0  0
  3 17  1  0  0  0  0
 19 20  1  0  0  0  0
  4 19  1  0  0  0  0
  8 21  1  0  0  0  0
 22 23  1  0  0  0  0
 23 24  1  0  0  0  0
 24 25  1  0  0  0  0
 24 29  2  0  0  0  0
 25 26  2  0  0  0  0
 26 27  1  0  0  0  0
 27 28  2  0  0  0  0
 28 29  1  0  0  0  0
 28 30  1  0  0  0  0
  7 29  1  0  0  0  0
M  END
> <score_Kier1>
0.51772

$$$$
suggested molecule #493
 MOE2019            2D

 30 33  0  0  0  0  0  0  0  0999 V2000
    3.4992   -1.2833    0.0000 C   0  0  0  0  0  0  0  0  0  1  0  0
    4.9992   -1.2762    0.0000 C   0  0  0  0  0  0  0  0  0  2  0  0
    5.7430    0.0263    0.0000 C   0  0  0  0  0  0  0  0  0  3  0  0
    4.9869    1.3218    0.0000 C   0  0  0  0  0  0  0  0  0  4  0  0
    3.4870    1.3147    0.0000 C   0  0  0  0  0  0  0  0  0  5  0  0
    2.7431    0.0122    0.0000 C   0  0  0  0  0  0  0  0  0  6  0  0
    1.2431    0.0051    0.0000 C   0  0  0  0  0  0  0  0  0  7  0  0
    0.4870    1.3006    0.0000 C   0  0  0  0  0  0  0  0  0  8  0  0
    1.2309    2.6032    0.0000 C   0  0  0  0  0  0  0  0  0  9  0  0
    0.4748    3.8987    0.0000 O   0  0  0  0  0  0  0  0  0 10  0  0
    2.7309    2.6102    0.0000 O   0  0  0  0  0  0  0  0  0 11  0  0
    3.2016   -1.8043    0.0000 H   0  0  0  0  0  0  0  0  0  0  0  0
    9.2946   -0.5060    0.0000 C   0  0  0  0  0  0  0  0  0  0  0  0
    7.9991   -1.2621    0.0000 C   0  0  0  0  0  0  0  0  0  0  0  0
    7.2552   -2.5647    0.0000 C   0  0  0  0  0  0  0  0  0  0  0  0
    5.7553   -2.5717    0.0000 C   0  0  0  0  0  0  0  0  0  0  0  0
    7.2430    0.0334    0.0000 O   0  0  0  0  0  0  0  0  0  0  0  0
    9.3017   -2.0060    0.0000 C   0  0  0  0  0  0  0  0  0  0  0  0
    5.7308    2.6244    0.0000 O   0  0  0  0  0  0  0  0  0  0  0  0
    4.9747    3.9198    0.0000 C   0  0  0  0  0  0  0  0  0  0  0  0
   -0.7130    1.2950    0.0000 H   0  0  0  0  0  0  0  0  0  0  0  0
   -3.2569   -0.0160    0.0000 C   0  0  0  0  0  0  0  0  0  0  0  0
   -1.7569   -0.0090    0.0000 O   0  0  0  0  0  0  0  0  0  0  0  0
   -1.0008   -1.3045    0.0000 C   0  0  0  0  0  0  0  0  0  0  0  0
   -1.7447   -2.6070    0.0000 C   0  0  0  0  0  0  0  0  0  0  0  0
   -0.9886   -3.9025    0.0000 C   0  0  0  0  0  0  0  0  0  0  0  0
    0.5114   -3.8955    0.0000 C   0  0  0  0  0  0  0  0  0  0  0  0
    1.2553   -2.5929    0.0000 C   0  0  0  0  0  0  0  0  0  0  0  0
    0.4992   -1.2974    0.0000 C   0  0  0  0  0  0  0  0  0  0  0  0
    2.7553   -2.5859    0.0000 O   0  0  0  0  0  0  0  0  0  0  0  0
  1  2  1  0  0  0  0
  1  6  2  0  0  0  0
  2  3  2  0  0  0  0
  3  4  1  0  0  0  0
  4  5  2  0  0  0  0
  5  6  1  0  0  0  0
  5 11  1  0  0  0  0
  6  7  1  0  0  0  0
  7  8  2  0  0  0  0
  8  9  1  0  0  0  0
  9 10  2  0  0  0  0
  9 11  1  0  0  0  0
  1 12  1  0  0  0  0
 13 14  1  0  0  0  0
 14 15  1  0  0  0  0
 14 17  1  0  0  0  0
 14 18  1  0  0  0  0
 15 16  2  0  0  0  0
  2 16  1  0  0  0  0
  3 17  1  0  0  0  0
 19 20  1  0  0  0  0
  4 19  1  0  0  0  0
  8 21  1  0  0  0  0
 22 23  1  0  0  0  0
 23 24  1  0  0  0  0
 24 25  1  0  0  0  0
 24 29  2  0  0  0  0
 25 26  2  0  0  0  0
 26 27  1  0  0  0  0
 27 28  2  0  0  0  0
 28 29  1  0  0  0  0
 28 30  1  0  0  0  0
  7 29  1  0  0  0  0
M  END
> <score_Kier3>
0.511742

$$$$
suggested molecule #494
 MOE2019            2D

 30 33  0  0  0  0  0  0  0  0999 V2000
    3.4992   -1.2833    0.0000 C   0  0  0  0  0  0  0  0  0  1  0  0
    4.9992   -1.2762    0.0000 C   0  0  0  0  0  0  0  0  0  2  0  0
    5.7430    0.0263    0.0000 C   0  0  0  0  0  0  0  0  0  3  0  0
    4.9869    1.3218    0.0000 C   0  0  0  0  0  0  0  0  0  4  0  0
    3.4870    1.3147    0.0000 C   0  0  0  0  0  0  0  0  0  5  0  0
    2.7431    0.0122    0.0000 C   0  0  0  0  0  0  0  0  0  6  0  0
    1.2431    0.0051    0.0000 C   0  0  0  0  0  0  0  0  0  7  0  0
    0.4870    1.3006    0.0000 C   0  0  0  0  0  0  0  0  0  8  0  0
    1.2309    2.6032    0.0000 C   0  0  0  0  0  0  0  0  0  9  0  0
    0.4748    3.8987    0.0000 O   0  0  0  0  0  0  0  0  0 10  0  0
    2.7309    2.6102    0.0000 O   0  0  0  0  0  0  0  0  0 11  0  0
    3.2016   -1.8043    0.0000 H   0  0  0  0  0  0  0  0  0  0  0  0
    9.2946   -0.5060    0.0000 C   0  0  0  0  0  0  0  0  0  0  0  0
    7.9991   -1.2621    0.0000 C   0  0  0  0  0  0  0  0  0  0  0  0
    7.2552   -2.5647    0.0000 C   0  0  0  0  0  0  0  0  0  0  0  0
    5.7553   -2.5717    0.0000 C   0  0  0  0  0  0  0  0  0  0  0  0
    7.2430    0.0334    0.0000 O   0  0  0  0  0  0  0  0  0  0  0  0
    9.3017   -2.0060    0.0000 C   0  0  0  0  0  0  0  0  0  0  0  0
    5.7308    2.6244    0.0000 O   0  0  0  0  0  0  0  0  0  0  0  0
    4.9747    3.9198    0.0000 C   0  0  0  0  0  0  0  0  0  0  0  0
   -0.7130    1.2950    0.0000 H   0  0  0  0  0  0  0  0  0  0  0  0
   -3.2569   -0.0160    0.0000 C   0  0  0  0  0  0  0  0  0  0  0  0
   -1.7569   -0.0090    0.0000 O   0  0  0  0  0  0  0  0  0  0  0  0
   -1.0008   -1.3045    0.0000 C   0  0  0  0  0  0  0  0  0  0  0  0
   -1.7447   -2.6070    0.0000 C   0  0  0  0  0  0  0  0  0  0  0  0
   -0.9886   -3.9025    0.0000 C   0  0  0  0  0  0  0  0  0  0  0  0
    0.5114   -3.8955    0.0000 C   0  0  0  0  0  0  0  0  0  0  0  0
    1.2553   -2.5929    0.0000 C   0  0  0  0  0  0  0  0  0  0  0  0
    0.4992   -1.2974    0.0000 C   0  0  0  0  0  0  0  0  0  0  0  0
    2.7553   -2.5859    0.0000 O   0  0  0  0  0  0  0  0  0  0  0  0
  1  2  1  0  0  0  0
  1  6  2  0  0  0  0
  2  3  2  0  0  0  0
  3  4  1  0  0  0  0
  4  5  2  0  0  0  0
  5  6  1  0  0  0  0
  5 11  1  0  0  0  0
  6  7  1  0  0  0  0
  7  8  2  0  0  0  0
  8  9  1  0  0  0  0
  9 10  2  0  0  0  0
  9 11  1  0  0  0  0
  1 12  1  0  0  0  0
 13 14  1  0  0  0  0
 14 15  1  0  0  0  0
 14 17  1  0  0  0  0
 14 18  1  0  0  0  0
 15 16  2  0  0  0  0
  2 16  1  0  0  0  0
  3 17  1  0  0  0  0
 19 20  1  0  0  0  0
  4 19  1  0  0  0  0
  8 21  1  0  0  0  0
 22 23  1  0  0  0  0
 23 24  1  0  0  0  0
 24 25  1  0  0  0  0
 24 29  2  0  0  0  0
 25 26  2  0  0  0  0
 26 27  1  0  0  0  0
 27 28  2  0  0  0  0
 28 29  1  0  0  0  0
 28 30  1  0  0  0  0
  7 29  1  0  0  0  0
M  END
> <score_KierA1>
0.517767

$$$$
suggested molecule #495
 MOE2019            2D

 30 33  0  0  0  0  0  0  0  0999 V2000
    3.4992   -1.2833    0.0000 C   0  0  0  0  0  0  0  0  0  1  0  0
    4.9992   -1.2762    0.0000 C   0  0  0  0  0  0  0  0  0  2  0  0
    5.7430    0.0263    0.0000 C   0  0  0  0  0  0  0  0  0  3  0  0
    4.9869    1.3218    0.0000 C   0  0  0  0  0  0  0  0  0  4  0  0
    3.4870    1.3147    0.0000 C   0  0  0  0  0  0  0  0  0  5  0  0
    2.7431    0.0122    0.0000 C   0  0  0  0  0  0  0  0  0  6  0  0
    1.2431    0.0051    0.0000 C   0  0  0  0  0  0  0  0  0  7  0  0
    0.4870    1.3006    0.0000 C   0  0  0  0  0  0  0  0  0  8  0  0
    1.2309    2.6032    0.0000 C   0  0  0  0  0  0  0  0  0  9  0  0
    0.4748    3.8987    0.0000 O   0  0  0  0  0  0  0  0  0 10  0  0
    2.7309    2.6102    0.0000 O   0  0  0  0  0  0  0  0  0 11  0  0
    3.2016   -1.8043    0.0000 H   0  0  0  0  0  0  0  0  0  0  0  0
    9.2946   -0.5060    0.0000 C   0  0  0  0  0  0  0  0  0  0  0  0
    7.9991   -1.2621    0.0000 C   0  0  0  0  0  0  0  0  0  0  0  0
    7.2552   -2.5647    0.0000 C   0  0  0  0  0  0  0  0  0  0  0  0
    5.7553   -2.5717    0.0000 C   0  0  0  0  0  0  0  0  0  0  0  0
    7.2430    0.0334    0.0000 O   0  0  0  0  0  0  0  0  0  0  0  0
    9.3017   -2.0060    0.0000 C   0  0  0  0  0  0  0  0  0  0  0  0
    5.7308    2.6244    0.0000 O   0  0  0  0  0  0  0  0  0  0  0  0
    4.9747    3.9198    0.0000 C   0  0  0  0  0  0  0  0  0  0  0  0
   -0.7130    1.2950    0.0000 H   0  0  0  0  0  0  0  0  0  0  0  0
   -3.2569   -0.0160    0.0000 C   0  0  0  0  0  0  0  0  0  0  0  0
   -1.7569   -0.0090    0.0000 O   0  0  0  0  0  0  0  0  0  0  0  0
   -1.0008   -1.3045    0.0000 C   0  0  0  0  0  0  0  0  0  0  0  0
   -1.7447   -2.6070    0.0000 C   0  0  0  0  0  0  0  0  0  0  0  0
   -0.9886   -3.9025    0.0000 C   0  0  0  0  0  0  0  0  0  0  0  0
    0.5114   -3.8955    0.0000 C   0  0  0  0  0  0  0  0  0  0  0  0
    1.2553   -2.5929    0.0000 C   0  0  0  0  0  0  0  0  0  0  0  0
    0.4992   -1.2974    0.0000 C   0  0  0  0  0  0  0  0  0  0  0  0
    2.7553   -2.5859    0.0000 O   0  0  0  0  0  0  0  0  0  0  0  0
  1  2  1  0  0  0  0
  1  6  2  0  0  0  0
  2  3  2  0  0  0  0
  3  4  1  0  0  0  0
  4  5  2  0  0  0  0
  5  6  1  0  0  0  0
  5 11  1  0  0  0  0
  6  7  1  0  0  0  0
  7  8  2  0  0  0  0
  8  9  1  0  0  0  0
  9 10  2  0  0  0  0
  9 11  1  0  0  0  0
  1 12  1  0  0  0  0
 13 14  1  0  0  0  0
 14 15  1  0  0  0  0
 14 17  1  0  0  0  0
 14 18  1  0  0  0  0
 15 16  2  0  0  0  0
  2 16  1  0  0  0  0
  3 17  1  0  0  0  0
 19 20  1  0  0  0  0
  4 19  1  0  0  0  0
  8 21  1  0  0  0  0
 22 23  1  0  0  0  0
 23 24  1  0  0  0  0
 24 25  1  0  0  0  0
 24 29  2  0  0  0  0
 25 26  2  0  0  0  0
 26 27  1  0  0  0  0
 27 28  2  0  0  0  0
 28 29  1  0  0  0  0
 28 30  1  0  0  0  0
  7 29  1  0  0  0  0
M  END
> <score_KierA2>
0.516824

$$$$
suggested molecule #496
 MOE2019            2D

 30 33  0  0  0  0  0  0  0  0999 V2000
    3.4992   -1.2833    0.0000 C   0  0  0  0  0  0  0  0  0  1  0  0
    4.9992   -1.2762    0.0000 C   0  0  0  0  0  0  0  0  0  2  0  0
    5.7430    0.0263    0.0000 C   0  0  0  0  0  0  0  0  0  3  0  0
    4.9869    1.3218    0.0000 C   0  0  0  0  0  0  0  0  0  4  0  0
    3.4870    1.3147    0.0000 C   0  0  0  0  0  0  0  0  0  5  0  0
    2.7431    0.0122    0.0000 C   0  0  0  0  0  0  0  0  0  6  0  0
    1.2431    0.0051    0.0000 C   0  0  0  0  0  0  0  0  0  7  0  0
    0.4870    1.3006    0.0000 C   0  0  0  0  0  0  0  0  0  8  0  0
    1.2309    2.6032    0.0000 C   0  0  0  0  0  0  0  0  0  9  0  0
    0.4748    3.8987    0.0000 O   0  0  0  0  0  0  0  0  0 10  0  0
    2.7309    2.6102    0.0000 O   0  0  0  0  0  0  0  0  0 11  0  0
    3.2016   -1.8043    0.0000 H   0  0  0  0  0  0  0  0  0  0  0  0
    9.2946   -0.5060    0.0000 C   0  0  0  0  0  0  0  0  0  0  0  0
    7.9991   -1.2621    0.0000 C   0  0  0  0  0  0  0  0  0  0  0  0
    7.2552   -2.5647    0.0000 C   0  0  0  0  0  0  0  0  0  0  0  0
    5.7553   -2.5717    0.0000 C   0  0  0  0  0  0  0  0  0  0  0  0
    7.2430    0.0334    0.0000 O   0  0  0  0  0  0  0  0  0  0  0  0
    9.3017   -2.0060    0.0000 C   0  0  0  0  0  0  0  0  0  0  0  0
    5.7308    2.6244    0.0000 O   0  0  0  0  0  0  0  0  0  0  0  0
    4.9747    3.9198    0.0000 C   0  0  0  0  0  0  0  0  0  0  0  0
   -0.7130    1.2950    0.0000 H   0  0  0  0  0  0  0  0  0  0  0  0
   -3.2569   -0.0160    0.0000 C   0  0  0  0  0  0  0  0  0  0  0  0
   -1.7569   -0.0090    0.0000 O   0  0  0  0  0  0  0  0  0  0  0  0
   -1.0008   -1.3045    0.0000 C   0  0  0  0  0  0  0  0  0  0  0  0
   -1.7447   -2.6070    0.0000 C   0  0  0  0  0  0  0  0  0  0  0  0
   -0.9886   -3.9025    0.0000 C   0  0  0  0  0  0  0  0  0  0  0  0
    0.5114   -3.8955    0.0000 C   0  0  0  0  0  0  0  0  0  0  0  0
    1.2553   -2.5929    0.0000 C   0  0  0  0  0  0  0  0  0  0  0  0
    0.4992   -1.2974    0.0000 C   0  0  0  0  0  0  0  0  0  0  0  0
    2.7553   -2.5859    0.0000 O   0  0  0  0  0  0  0  0  0  0  0  0
  1  2  1  0  0  0  0
  1  6  2  0  0  0  0
  2  3  2  0  0  0  0
  3  4  1  0  0  0  0
  4  5  2  0  0  0  0
  5  6  1  0  0  0  0
  5 11  1  0  0  0  0
  6  7  1  0  0  0  0
  7  8  2  0  0  0  0
  8  9  1  0  0  0  0
  9 10  2  0  0  0  0
  9 11  1  0  0  0  0
  1 12  1  0  0  0  0
 13 14  1  0  0  0  0
 14 15  1  0  0  0  0
 14 17  1  0  0  0  0
 14 18  1  0  0  0  0
 15 16  2  0  0  0  0
  2 16  1  0  0  0  0
  3 17  1  0  0  0  0
 19 20  1  0  0  0  0
  4 19  1  0  0  0  0
  8 21  1  0  0  0  0
 22 23  1  0  0  0  0
 23 24  1  0  0  0  0
 24 25  1  0  0  0  0
 24 29  2  0  0  0  0
 25 26  2  0  0  0  0
 26 27  1  0  0  0  0
 27 28  2  0  0  0  0
 28 29  1  0  0  0  0
 28 30  1  0  0  0  0
  7 29  1  0  0  0  0
M  END
> <score_KierA3>
0.512457

$$$$
suggested molecule #497
 MOE2019            2D

 30 33  0  0  0  0  0  0  0  0999 V2000
    3.4992   -1.2833    0.0000 C   0  0  0  0  0  0  0  0  0  1  0  0
    4.9992   -1.2762    0.0000 C   0  0  0  0  0  0  0  0  0  2  0  0
    5.7430    0.0263    0.0000 C   0  0  0  0  0  0  0  0  0  3  0  0
    4.9869    1.3218    0.0000 C   0  0  0  0  0  0  0  0  0  4  0  0
    3.4870    1.3147    0.0000 C   0  0  0  0  0  0  0  0  0  5  0  0
    2.7431    0.0122    0.0000 C   0  0  0  0  0  0  0  0  0  6  0  0
    1.2431    0.0051    0.0000 C   0  0  0  0  0  0  0  0  0  7  0  0
    0.4870    1.3006    0.0000 C   0  0  0  0  0  0  0  0  0  8  0  0
    1.2309    2.6032    0.0000 C   0  0  0  0  0  0  0  0  0  9  0  0
    0.4748    3.8987    0.0000 O   0  0  0  0  0  0  0  0  0 10  0  0
    2.7309    2.6102    0.0000 O   0  0  0  0  0  0  0  0  0 11  0  0
    3.2016   -1.8043    0.0000 H   0  0  0  0  0  0  0  0  0  0  0  0
    9.2946   -0.5060    0.0000 C   0  0  0  0  0  0  0  0  0  0  0  0
    7.9991   -1.2621    0.0000 C   0  0  0  0  0  0  0  0  0  0  0  0
    7.2552   -2.5647    0.0000 C   0  0  0  0  0  0  0  0  0  0  0  0
    5.7553   -2.5717    0.0000 C   0  0  0  0  0  0  0  0  0  0  0  0
    7.2430    0.0334    0.0000 O   0  0  0  0  0  0  0  0  0  0  0  0
    9.3017   -2.0060    0.0000 C   0  0  0  0  0  0  0  0  0  0  0  0
    5.7308    2.6244    0.0000 O   0  0  0  0  0  0  0  0  0  0  0  0
    4.9747    3.9198    0.0000 C   0  0  0  0  0  0  0  0  0  0  0  0
   -0.7130    1.2950    0.0000 H   0  0  0  0  0  0  0  0  0  0  0  0
   -3.2569   -0.0160    0.0000 C   0  0  0  0  0  0  0  0  0  0  0  0
   -1.7569   -0.0090    0.0000 O   0  0  0  0  0  0  0  0  0  0  0  0
   -1.0008   -1.3045    0.0000 C   0  0  0  0  0  0  0  0  0  0  0  0
   -1.7447   -2.6070    0.0000 C   0  0  0  0  0  0  0  0  0  0  0  0
   -0.9886   -3.9025    0.0000 C   0  0  0  0  0  0  0  0  0  0  0  0
    0.5114   -3.8955    0.0000 C   0  0  0  0  0  0  0  0  0  0  0  0
    1.2553   -2.5929    0.0000 C   0  0  0  0  0  0  0  0  0  0  0  0
    0.4992   -1.2974    0.0000 C   0  0  0  0  0  0  0  0  0  0  0  0
    2.7553   -2.5859    0.0000 O   0  0  0  0  0  0  0  0  0  0  0  0
  1  2  1  0  0  0  0
  1  6  2  0  0  0  0
  2  3  2  0  0  0  0
  3  4  1  0  0  0  0
  4  5  2  0  0  0  0
  5  6  1  0  0  0  0
  5 11  1  0  0  0  0
  6  7  1  0  0  0  0
  7  8  2  0  0  0  0
  8  9  1  0  0  0  0
  9 10  2  0  0  0  0
  9 11  1  0  0  0  0
  1 12  1  0  0  0  0
 13 14  1  0  0  0  0
 14 15  1  0  0  0  0
 14 17  1  0  0  0  0
 14 18  1  0  0  0  0
 15 16  2  0  0  0  0
  2 16  1  0  0  0  0
  3 17  1  0  0  0  0
 19 20  1  0  0  0  0
  4 19  1  0  0  0  0
  8 21  1  0  0  0  0
 22 23  1  0  0  0  0
 23 24  1  0  0  0  0
 24 25  1  0  0  0  0
 24 29  2  0  0  0  0
 25 26  2  0  0  0  0
 26 27  1  0  0  0  0
 27 28  2  0  0  0  0
 28 29  1  0  0  0  0
 28 30  1  0  0  0  0
  7 29  1  0  0  0  0
M  END
> <score_KierFlex>
0.516576

$$$$
suggested molecule #498
 MOE2019            2D

 31 34  0  0  0  0  0  0  0  0999 V2000
    3.4992   -1.2833    0.0000 C   0  0  0  0  0  0  0  0  0  1  0  0
    4.9992   -1.2762    0.0000 C   0  0  0  0  0  0  0  0  0  2  0  0
    5.7430    0.0263    0.0000 C   0  0  0  0  0  0  0  0  0  3  0  0
    4.9869    1.3218    0.0000 C   0  0  0  0  0  0  0  0  0  4  0  0
    3.4870    1.3147    0.0000 C   0  0  0  0  0  0  0  0  0  5  0  0
    2.7431    0.0122    0.0000 C   0  0  0  0  0  0  0  0  0  6  0  0
    1.2431    0.0051    0.0000 C   0  0  0  0  0  0  0  0  0  7  0  0
    0.4870    1.3006    0.0000 C   0  0  0  0  0  0  0  0  0  8  0  0
    1.2309    2.6032    0.0000 C   0  0  0  0  0  0  0  0  0  9  0  0
    0.4748    3.8987    0.0000 O   0  0  0  0  0  0  0  0  0 10  0  0
    2.7309    2.6102    0.0000 O   0  0  0  0  0  0  0  0  0 11  0  0
    2.9041   -2.3253    0.0000 H   0  0  0  0  0  0  0  0  0  0  0  0
    9.3017   -2.0060    0.0000 C   0  0  0  0  0  0  0  0  0  0  0  0
    7.9991   -1.2621    0.0000 C   0  0  0  0  0  0  0  0  0  0  0  0
    7.2552   -2.5647    0.0000 C   0  0  0  0  0  0  0  0  0  0  0  0
    5.7553   -2.5717    0.0000 C   0  0  0  0  0  0  0  0  0  0  0  0
    7.2430    0.0334    0.0000 O   0  0  0  0  0  0  0  0  0  0  0  0
    9.2946   -0.5060    0.0000 C   0  0  0  0  0  0  0  0  0  0  0  0
    5.7308    2.6244    0.0000 O   0  0  0  0  0  0  0  0  0  0  0  0
    4.9747    3.9198    0.0000 C   0  0  0  0  0  0  0  0  0  0  0  0
   -0.7130    1.2950    0.0000 H   0  0  0  0  0  0  0  0  0  0  0  0
   -3.2324   -5.2121    0.0000 C   0  0  0  0  0  0  0  0  0  0  0  0
   -1.7324   -5.2051    0.0000 O   0  0  0  0  0  0  0  0  0  0  0  0
   -0.9886   -3.9025    0.0000 C   0  0  0  0  0  0  0  0  0  0  0  0
   -1.7447   -2.6070    0.0000 C   0  0  0  0  0  0  0  0  0  0  0  0
   -1.0008   -1.3045    0.0000 C   0  0  0  0  0  0  0  0  0  0  0  0
    0.4992   -1.2974    0.0000 C   0  0  0  0  0  0  0  0  0  0  0  0
    1.2553   -2.5929    0.0000 C   0  0  0  0  0  0  0  0  0  0  0  0
    0.5114   -3.8955    0.0000 C   0  0  0  0  0  0  0  0  0  0  0  0
   -1.7569   -0.0090    0.0000 O   0  0  0  0  0  0  0  0  0  0  0  0
   -3.2569   -0.0160    0.0000 C   0  0  0  0  0  0  0  0  0  0  0  0
  1  2  1  0  0  0  0
  1  6  2  0  0  0  0
  2  3  2  0  0  0  0
  3  4  1  0  0  0  0
  4  5  2  0  0  0  0
  5  6  1  0  0  0  0
  5 11  1  0  0  0  0
  6  7  1  0  0  0  0
  7  8  2  0  0  0  0
  8  9  1  0  0  0  0
  9 10  2  0  0  0  0
  9 11  1  0  0  0  0
  1 12  1  0  0  0  0
 13 14  1  0  0  0  0
 14 15  1  0  0  0  0
 14 17  1  0  0  0  0
 14 18  1  0  0  0  0
 15 16  2  0  0  0  0
  2 16  1  0  0  0  0
  3 17  1  0  0  0  0
 19 20  1  0  0  0  0
  4 19  1  0  0  0  0
  8 21  1  0  0  0  0
 22 23  1  0  0  0  0
 23 24  1  0  0  0  0
 24 25  1  0  0  0  0
 24 29  2  0  0  0  0
 25 26  2  0  0  0  0
 26 27  1  0  0  0  0
 26 30  1  0  0  0  0
 27 28  2  0  0  0  0
 28 29  1  0  0  0  0
 30 31  1  0  0  0  0
  7 27  1  0  0  0  0
M  END
> <score_Kier1>
0.517726

$$$$
suggested molecule #499
 MOE2019            2D

 31 34  0  0  0  0  0  0  0  0999 V2000
    3.4992   -1.2833    0.0000 C   0  0  0  0  0  0  0  0  0  1  0  0
    4.9992   -1.2762    0.0000 C   0  0  0  0  0  0  0  0  0  2  0  0
    5.7430    0.0263    0.0000 C   0  0  0  0  0  0  0  0  0  3  0  0
    4.9869    1.3218    0.0000 C   0  0  0  0  0  0  0  0  0  4  0  0
    3.4870    1.3147    0.0000 C   0  0  0  0  0  0  0  0  0  5  0  0
    2.7431    0.0122    0.0000 C   0  0  0  0  0  0  0  0  0  6  0  0
    1.2431    0.0051    0.0000 C   0  0  0  0  0  0  0  0  0  7  0  0
    0.4870    1.3006    0.0000 C   0  0  0  0  0  0  0  0  0  8  0  0
    1.2309    2.6032    0.0000 C   0  0  0  0  0  0  0  0  0  9  0  0
    0.4748    3.8987    0.0000 O   0  0  0  0  0  0  0  0  0 10  0  0
    2.7309    2.6102    0.0000 O   0  0  0  0  0  0  0  0  0 11  0  0
    2.9041   -2.3253    0.0000 H   0  0  0  0  0  0  0  0  0  0  0  0
    9.3017   -2.0060    0.0000 C   0  0  0  0  0  0  0  0  0  0  0  0
    7.9991   -1.2621    0.0000 C   0  0  0  0  0  0  0  0  0  0  0  0
    7.2552   -2.5647    0.0000 C   0  0  0  0  0  0  0  0  0  0  0  0
    5.7553   -2.5717    0.0000 C   0  0  0  0  0  0  0  0  0  0  0  0
    7.2430    0.0334    0.0000 O   0  0  0  0  0  0  0  0  0  0  0  0
    9.2946   -0.5060    0.0000 C   0  0  0  0  0  0  0  0  0  0  0  0
    5.7308    2.6244    0.0000 O   0  0  0  0  0  0  0  0  0  0  0  0
    4.9747    3.9198    0.0000 C   0  0  0  0  0  0  0  0  0  0  0  0
   -0.7130    1.2950    0.0000 H   0  0  0  0  0  0  0  0  0  0  0  0
   -3.2324   -5.2121    0.0000 C   0  0  0  0  0  0  0  0  0  0  0  0
   -1.7324   -5.2051    0.0000 O   0  0  0  0  0  0  0  0  0  0  0  0
   -0.9886   -3.9025    0.0000 C   0  0  0  0  0  0  0  0  0  0  0  0
   -1.7447   -2.6070    0.0000 C   0  0  0  0  0  0  0  0  0  0  0  0
   -1.0008   -1.3045    0.0000 C   0  0  0  0  0  0  0  0  0  0  0  0
    0.4992   -1.2974    0.0000 C   0  0  0  0  0  0  0  0  0  0  0  0
    1.2553   -2.5929    0.0000 C   0  0  0  0  0  0  0  0  0  0  0  0
    0.5114   -3.8955    0.0000 C   0  0  0  0  0  0  0  0  0  0  0  0
   -1.7569   -0.0090    0.0000 O   0  0  0  0  0  0  0  0  0  0  0  0
   -3.2569   -0.0160    0.0000 C   0  0  0  0  0  0  0  0  0  0  0  0
  1  2  1  0  0  0  0
  1  6  2  0  0  0  0
  2  3  2  0  0  0  0
  3  4  1  0  0  0  0
  4  5  2  0  0  0  0
  5  6  1  0  0  0  0
  5 11  1  0  0  0  0
  6  7  1  0  0  0  0
  7  8  2  0  0  0  0
  8  9  1  0  0  0  0
  9 10  2  0  0  0  0
  9 11  1  0  0  0  0
  1 12  1  0  0  0  0
 13 14  1  0  0  0  0
 14 15  1  0  0  0  0
 14 17  1  0  0  0  0
 14 18  1  0  0  0  0
 15 16  2  0  0  0  0
  2 16  1  0  0  0  0
  3 17  1  0  0  0  0
 19 20  1  0  0  0  0
  4 19  1  0  0  0  0
  8 21  1  0  0  0  0
 22 23  1  0  0  0  0
 23 24  1  0  0  0  0
 24 25  1  0  0  0  0
 24 29  2  0  0  0  0
 25 26  2  0  0  0  0
 26 27  1  0  0  0  0
 26 30  1  0  0  0  0
 27 28  2  0  0  0  0
 28 29  1  0  0  0  0
 30 31  1  0  0  0  0
  7 27  1  0  0  0  0
M  END
> <score_Kier3>
0.511737

$$$$
suggested molecule #500
 MOE2019            2D

 31 34  0  0  0  0  0  0  0  0999 V2000
    3.4992   -1.2833    0.0000 C   0  0  0  0  0  0  0  0  0  1  0  0
    4.9992   -1.2762    0.0000 C   0  0  0  0  0  0  0  0  0  2  0  0
    5.7430    0.0263    0.0000 C   0  0  0  0  0  0  0  0  0  3  0  0
    4.9869    1.3218    0.0000 C   0  0  0  0  0  0  0  0  0  4  0  0
    3.4870    1.3147    0.0000 C   0  0  0  0  0  0  0  0  0  5  0  0
    2.7431    0.0122    0.0000 C   0  0  0  0  0  0  0  0  0  6  0  0
    1.2431    0.0051    0.0000 C   0  0  0  0  0  0  0  0  0  7  0  0
    0.4870    1.3006    0.0000 C   0  0  0  0  0  0  0  0  0  8  0  0
    1.2309    2.6032    0.0000 C   0  0  0  0  0  0  0  0  0  9  0  0
    0.4748    3.8987    0.0000 O   0  0  0  0  0  0  0  0  0 10  0  0
    2.7309    2.6102    0.0000 O   0  0  0  0  0  0  0  0  0 11  0  0
    2.9041   -2.3253    0.0000 H   0  0  0  0  0  0  0  0  0  0  0  0
    9.3017   -2.0060    0.0000 C   0  0  0  0  0  0  0  0  0  0  0  0
    7.9991   -1.2621    0.0000 C   0  0  0  0  0  0  0  0  0  0  0  0
    7.2552   -2.5647    0.0000 C   0  0  0  0  0  0  0  0  0  0  0  0
    5.7553   -2.5717    0.0000 C   0  0  0  0  0  0  0  0  0  0  0  0
    7.2430    0.0334    0.0000 O   0  0  0  0  0  0  0  0  0  0  0  0
    9.2946   -0.5060    0.0000 C   0  0  0  0  0  0  0  0  0  0  0  0
    5.7308    2.6244    0.0000 O   0  0  0  0  0  0  0  0  0  0  0  0
    4.9747    3.9198    0.0000 C   0  0  0  0  0  0  0  0  0  0  0  0
   -0.7130    1.2950    0.0000 H   0  0  0  0  0  0  0  0  0  0  0  0
   -3.2324   -5.2121    0.0000 C   0  0  0  0  0  0  0  0  0  0  0  0
   -1.7324   -5.2051    0.0000 O   0  0  0  0  0  0  0  0  0  0  0  0
   -0.9886   -3.9025    0.0000 C   0  0  0  0  0  0  0  0  0  0  0  0
   -1.7447   -2.6070    0.0000 C   0  0  0  0  0  0  0  0  0  0  0  0
   -1.0008   -1.3045    0.0000 C   0  0  0  0  0  0  0  0  0  0  0  0
    0.4992   -1.2974    0.0000 C   0  0  0  0  0  0  0  0  0  0  0  0
    1.2553   -2.5929    0.0000 C   0  0  0  0  0  0  0  0  0  0  0  0
    0.5114   -3.8955    0.0000 C   0  0  0  0  0  0  0  0  0  0  0  0
   -1.7569   -0.0090    0.0000 O   0  0  0  0  0  0  0  0  0  0  0  0
   -3.2569   -0.0160    0.0000 C   0  0  0  0  0  0  0  0  0  0  0  0
  1  2  1  0  0  0  0
  1  6  2  0  0  0  0
  2  3  2  0  0  0  0
  3  4  1  0  0  0  0
  4  5  2  0  0  0  0
  5  6  1  0  0  0  0
  5 11  1  0  0  0  0
  6  7  1  0  0  0  0
  7  8  2  0  0  0  0
  8  9  1  0  0  0  0
  9 10  2  0  0  0  0
  9 11  1  0  0  0  0
  1 12  1  0  0  0  0
 13 14  1  0  0  0  0
 14 15  1  0  0  0  0
 14 17  1  0  0  0  0
 14 18  1  0  0  0  0
 15 16  2  0  0  0  0
  2 16  1  0  0  0  0
  3 17  1  0  0  0  0
 19 20  1  0  0  0  0
  4 19  1  0  0  0  0
  8 21  1  0  0  0  0
 22 23  1  0  0  0  0
 23 24  1  0  0  0  0
 24 25  1  0  0  0  0
 24 29  2  0  0  0  0
 25 26  2  0  0  0  0
 26 27  1  0  0  0  0
 26 30  1  0  0  0  0
 27 28  2  0  0  0  0
 28 29  1  0  0  0  0
 30 31  1  0  0  0  0
  7 27  1  0  0  0  0
M  END
> <score_KierA1>
0.517774

$$$$
suggested molecule #501
 MOE2019            2D

 31 34  0  0  0  0  0  0  0  0999 V2000
    3.4992   -1.2833    0.0000 C   0  0  0  0  0  0  0  0  0  1  0  0
    4.9992   -1.2762    0.0000 C   0  0  0  0  0  0  0  0  0  2  0  0
    5.7430    0.0263    0.0000 C   0  0  0  0  0  0  0  0  0  3  0  0
    4.9869    1.3218    0.0000 C   0  0  0  0  0  0  0  0  0  4  0  0
    3.4870    1.3147    0.0000 C   0  0  0  0  0  0  0  0  0  5  0  0
    2.7431    0.0122    0.0000 C   0  0  0  0  0  0  0  0  0  6  0  0
    1.2431    0.0051    0.0000 C   0  0  0  0  0  0  0  0  0  7  0  0
    0.4870    1.3006    0.0000 C   0  0  0  0  0  0  0  0  0  8  0  0
    1.2309    2.6032    0.0000 C   0  0  0  0  0  0  0  0  0  9  0  0
    0.4748    3.8987    0.0000 O   0  0  0  0  0  0  0  0  0 10  0  0
    2.7309    2.6102    0.0000 O   0  0  0  0  0  0  0  0  0 11  0  0
    2.9041   -2.3253    0.0000 H   0  0  0  0  0  0  0  0  0  0  0  0
    9.3017   -2.0060    0.0000 C   0  0  0  0  0  0  0  0  0  0  0  0
    7.9991   -1.2621    0.0000 C   0  0  0  0  0  0  0  0  0  0  0  0
    7.2552   -2.5647    0.0000 C   0  0  0  0  0  0  0  0  0  0  0  0
    5.7553   -2.5717    0.0000 C   0  0  0  0  0  0  0  0  0  0  0  0
    7.2430    0.0334    0.0000 O   0  0  0  0  0  0  0  0  0  0  0  0
    9.2946   -0.5060    0.0000 C   0  0  0  0  0  0  0  0  0  0  0  0
    5.7308    2.6244    0.0000 O   0  0  0  0  0  0  0  0  0  0  0  0
    4.9747    3.9198    0.0000 C   0  0  0  0  0  0  0  0  0  0  0  0
   -0.7130    1.2950    0.0000 H   0  0  0  0  0  0  0  0  0  0  0  0
   -3.2324   -5.2121    0.0000 C   0  0  0  0  0  0  0  0  0  0  0  0
   -1.7324   -5.2051    0.0000 O   0  0  0  0  0  0  0  0  0  0  0  0
   -0.9886   -3.9025    0.0000 C   0  0  0  0  0  0  0  0  0  0  0  0
   -1.7447   -2.6070    0.0000 C   0  0  0  0  0  0  0  0  0  0  0  0
   -1.0008   -1.3045    0.0000 C   0  0  0  0  0  0  0  0  0  0  0  0
    0.4992   -1.2974    0.0000 C   0  0  0  0  0  0  0  0  0  0  0  0
    1.2553   -2.5929    0.0000 C   0  0  0  0  0  0  0  0  0  0  0  0
    0.5114   -3.8955    0.0000 C   0  0  0  0  0  0  0  0  0  0  0  0
   -1.7569   -0.0090    0.0000 O   0  0  0  0  0  0  0  0  0  0  0  0
   -3.2569   -0.0160    0.0000 C   0  0  0  0  0  0  0  0  0  0  0  0
  1  2  1  0  0  0  0
  1  6  2  0  0  0  0
  2  3  2  0  0  0  0
  3  4  1  0  0  0  0
  4  5  2  0  0  0  0
  5  6  1  0  0  0  0
  5 11  1  0  0  0  0
  6  7  1  0  0  0  0
  7  8  2  0  0  0  0
  8  9  1  0  0  0  0
  9 10  2  0  0  0  0
  9 11  1  0  0  0  0
  1 12  1  0  0  0  0
 13 14  1  0  0  0  0
 14 15  1  0  0  0  0
 14 17  1  0  0  0  0
 14 18  1  0  0  0  0
 15 16  2  0  0  0  0
  2 16  1  0  0  0  0
  3 17  1  0  0  0  0
 19 20  1  0  0  0  0
  4 19  1  0  0  0  0
  8 21  1  0  0  0  0
 22 23  1  0  0  0  0
 23 24  1  0  0  0  0
 24 25  1  0  0  0  0
 24 29  2  0  0  0  0
 25 26  2  0  0  0  0
 26 27  1  0  0  0  0
 26 30  1  0  0  0  0
 27 28  2  0  0  0  0
 28 29  1  0  0  0  0
 30 31  1  0  0  0  0
  7 27  1  0  0  0  0
M  END
> <score_KierA2>
0.516828

$$$$
suggested molecule #502
 MOE2019            2D

 31 34  0  0  0  0  0  0  0  0999 V2000
    3.4992   -1.2833    0.0000 C   0  0  0  0  0  0  0  0  0  1  0  0
    4.9992   -1.2762    0.0000 C   0  0  0  0  0  0  0  0  0  2  0  0
    5.7430    0.0263    0.0000 C   0  0  0  0  0  0  0  0  0  3  0  0
    4.9869    1.3218    0.0000 C   0  0  0  0  0  0  0  0  0  4  0  0
    3.4870    1.3147    0.0000 C   0  0  0  0  0  0  0  0  0  5  0  0
    2.7431    0.0122    0.0000 C   0  0  0  0  0  0  0  0  0  6  0  0
    1.2431    0.0051    0.0000 C   0  0  0  0  0  0  0  0  0  7  0  0
    0.4870    1.3006    0.0000 C   0  0  0  0  0  0  0  0  0  8  0  0
    1.2309    2.6032    0.0000 C   0  0  0  0  0  0  0  0  0  9  0  0
    0.4748    3.8987    0.0000 O   0  0  0  0  0  0  0  0  0 10  0  0
    2.7309    2.6102    0.0000 O   0  0  0  0  0  0  0  0  0 11  0  0
    2.9041   -2.3253    0.0000 H   0  0  0  0  0  0  0  0  0  0  0  0
    9.3017   -2.0060    0.0000 C   0  0  0  0  0  0  0  0  0  0  0  0
    7.9991   -1.2621    0.0000 C   0  0  0  0  0  0  0  0  0  0  0  0
    7.2552   -2.5647    0.0000 C   0  0  0  0  0  0  0  0  0  0  0  0
    5.7553   -2.5717    0.0000 C   0  0  0  0  0  0  0  0  0  0  0  0
    7.2430    0.0334    0.0000 O   0  0  0  0  0  0  0  0  0  0  0  0
    9.2946   -0.5060    0.0000 C   0  0  0  0  0  0  0  0  0  0  0  0
    5.7308    2.6244    0.0000 O   0  0  0  0  0  0  0  0  0  0  0  0
    4.9747    3.9198    0.0000 C   0  0  0  0  0  0  0  0  0  0  0  0
   -0.7130    1.2950    0.0000 H   0  0  0  0  0  0  0  0  0  0  0  0
   -3.2324   -5.2121    0.0000 C   0  0  0  0  0  0  0  0  0  0  0  0
   -1.7324   -5.2051    0.0000 O   0  0  0  0  0  0  0  0  0  0  0  0
   -0.9886   -3.9025    0.0000 C   0  0  0  0  0  0  0  0  0  0  0  0
   -1.7447   -2.6070    0.0000 C   0  0  0  0  0  0  0  0  0  0  0  0
   -1.0008   -1.3045    0.0000 C   0  0  0  0  0  0  0  0  0  0  0  0
    0.4992   -1.2974    0.0000 C   0  0  0  0  0  0  0  0  0  0  0  0
    1.2553   -2.5929    0.0000 C   0  0  0  0  0  0  0  0  0  0  0  0
    0.5114   -3.8955    0.0000 C   0  0  0  0  0  0  0  0  0  0  0  0
   -1.7569   -0.0090    0.0000 O   0  0  0  0  0  0  0  0  0  0  0  0
   -3.2569   -0.0160    0.0000 C   0  0  0  0  0  0  0  0  0  0  0  0
  1  2  1  0  0  0  0
  1  6  2  0  0  0  0
  2  3  2  0  0  0  0
  3  4  1  0  0  0  0
  4  5  2  0  0  0  0
  5  6  1  0  0  0  0
  5 11  1  0  0  0  0
  6  7  1  0  0  0  0
  7  8  2  0  0  0  0
  8  9  1  0  0  0  0
  9 10  2  0  0  0  0
  9 11  1  0  0  0  0
  1 12  1  0  0  0  0
 13 14  1  0  0  0  0
 14 15  1  0  0  0  0
 14 17  1  0  0  0  0
 14 18  1  0  0  0  0
 15 16  2  0  0  0  0
  2 16  1  0  0  0  0
  3 17  1  0  0  0  0
 19 20  1  0  0  0  0
  4 19  1  0  0  0  0
  8 21  1  0  0  0  0
 22 23  1  0  0  0  0
 23 24  1  0  0  0  0
 24 25  1  0  0  0  0
 24 29  2  0  0  0  0
 25 26  2  0  0  0  0
 26 27  1  0  0  0  0
 26 30  1  0  0  0  0
 27 28  2  0  0  0  0
 28 29  1  0  0  0  0
 30 31  1  0  0  0  0
  7 27  1  0  0  0  0
M  END
> <score_KierA3>
0.512454

$$$$
suggested molecule #503
 MOE2019            2D

 31 34  0  0  0  0  0  0  0  0999 V2000
    3.4992   -1.2833    0.0000 C   0  0  0  0  0  0  0  0  0  1  0  0
    4.9992   -1.2762    0.0000 C   0  0  0  0  0  0  0  0  0  2  0  0
    5.7430    0.0263    0.0000 C   0  0  0  0  0  0  0  0  0  3  0  0
    4.9869    1.3218    0.0000 C   0  0  0  0  0  0  0  0  0  4  0  0
    3.4870    1.3147    0.0000 C   0  0  0  0  0  0  0  0  0  5  0  0
    2.7431    0.0122    0.0000 C   0  0  0  0  0  0  0  0  0  6  0  0
    1.2431    0.0051    0.0000 C   0  0  0  0  0  0  0  0  0  7  0  0
    0.4870    1.3006    0.0000 C   0  0  0  0  0  0  0  0  0  8  0  0
    1.2309    2.6032    0.0000 C   0  0  0  0  0  0  0  0  0  9  0  0
    0.4748    3.8987    0.0000 O   0  0  0  0  0  0  0  0  0 10  0  0
    2.7309    2.6102    0.0000 O   0  0  0  0  0  0  0  0  0 11  0  0
    2.9041   -2.3253    0.0000 H   0  0  0  0  0  0  0  0  0  0  0  0
    9.3017   -2.0060    0.0000 C   0  0  0  0  0  0  0  0  0  0  0  0
    7.9991   -1.2621    0.0000 C   0  0  0  0  0  0  0  0  0  0  0  0
    7.2552   -2.5647    0.0000 C   0  0  0  0  0  0  0  0  0  0  0  0
    5.7553   -2.5717    0.0000 C   0  0  0  0  0  0  0  0  0  0  0  0
    7.2430    0.0334    0.0000 O   0  0  0  0  0  0  0  0  0  0  0  0
    9.2946   -0.5060    0.0000 C   0  0  0  0  0  0  0  0  0  0  0  0
    5.7308    2.6244    0.0000 O   0  0  0  0  0  0  0  0  0  0  0  0
    4.9747    3.9198    0.0000 C   0  0  0  0  0  0  0  0  0  0  0  0
   -0.7130    1.2950    0.0000 H   0  0  0  0  0  0  0  0  0  0  0  0
   -3.2324   -5.2121    0.0000 C   0  0  0  0  0  0  0  0  0  0  0  0
   -1.7324   -5.2051    0.0000 O   0  0  0  0  0  0  0  0  0  0  0  0
   -0.9886   -3.9025    0.0000 C   0  0  0  0  0  0  0  0  0  0  0  0
   -1.7447   -2.6070    0.0000 C   0  0  0  0  0  0  0  0  0  0  0  0
   -1.0008   -1.3045    0.0000 C   0  0  0  0  0  0  0  0  0  0  0  0
    0.4992   -1.2974    0.0000 C   0  0  0  0  0  0  0  0  0  0  0  0
    1.2553   -2.5929    0.0000 C   0  0  0  0  0  0  0  0  0  0  0  0
    0.5114   -3.8955    0.0000 C   0  0  0  0  0  0  0  0  0  0  0  0
   -1.7569   -0.0090    0.0000 O   0  0  0  0  0  0  0  0  0  0  0  0
   -3.2569   -0.0160    0.0000 C   0  0  0  0  0  0  0  0  0  0  0  0
  1  2  1  0  0  0  0
  1  6  2  0  0  0  0
  2  3  2  0  0  0  0
  3  4  1  0  0  0  0
  4  5  2  0  0  0  0
  5  6  1  0  0  0  0
  5 11  1  0  0  0  0
  6  7  1  0  0  0  0
  7  8  2  0  0  0  0
  8  9  1  0  0  0  0
  9 10  2  0  0  0  0
  9 11  1  0  0  0  0
  1 12  1  0  0  0  0
 13 14  1  0  0  0  0
 14 15  1  0  0  0  0
 14 17  1  0  0  0  0
 14 18  1  0  0  0  0
 15 16  2  0  0  0  0
  2 16  1  0  0  0  0
  3 17  1  0  0  0  0
 19 20  1  0  0  0  0
  4 19  1  0  0  0  0
  8 21  1  0  0  0  0
 22 23  1  0  0  0  0
 23 24  1  0  0  0  0
 24 25  1  0  0  0  0
 24 29  2  0  0  0  0
 25 26  2  0  0  0  0
 26 27  1  0  0  0  0
 26 30  1  0  0  0  0
 27 28  2  0  0  0  0
 28 29  1  0  0  0  0
 30 31  1  0  0  0  0
  7 27  1  0  0  0  0
M  END
> <score_KierFlex>
0.516581

$$$$
suggested molecule #504
 MOE2019            2D

 29 32  0  0  0  0  0  0  0  0999 V2000
    3.4992   -1.2833    0.0000 C   0  0  0  0  0  0  0  0  0  1  0  0
    4.9992   -1.2762    0.0000 C   0  0  0  0  0  0  0  0  0  2  0  0
    5.7430    0.0263    0.0000 C   0  0  0  0  0  0  0  0  0  3  0  0
    4.9869    1.3218    0.0000 C   0  0  0  0  0  0  0  0  0  4  0  0
    3.4870    1.3147    0.0000 C   0  0  0  0  0  0  0  0  0  5  0  0
    2.7431    0.0122    0.0000 C   0  0  0  0  0  0  0  0  0  6  0  0
    1.2431    0.0051    0.0000 C   0  0  0  0  0  0  0  0  0  7  0  0
    0.4870    1.3006    0.0000 C   0  0  0  0  0  0  0  0  0  8  0  0
    1.2309    2.6032    0.0000 C   0  0  0  0  0  0  0  0  0  9  0  0
    0.4748    3.8987    0.0000 O   0  0  0  0  0  0  0  0  0 10  0  0
    2.7309    2.6102    0.0000 O   0  0  0  0  0  0  0  0  0 11  0  0
    2.9041   -2.3253    0.0000 H   0  0  0  0  0  0  0  0  0  0  0  0
    9.3017   -2.0060    0.0000 C   0  0  0  0  0  0  0  0  0  0  0  0
    7.9991   -1.2621    0.0000 C   0  0  0  0  0  0  0  0  0  0  0  0
    7.2552   -2.5647    0.0000 C   0  0  0  0  0  0  0  0  0  0  0  0
    5.7553   -2.5717    0.0000 C   0  0  0  0  0  0  0  0  0  0  0  0
    7.2430    0.0334    0.0000 O   0  0  0  0  0  0  0  0  0  0  0  0
    9.2946   -0.5060    0.0000 C   0  0  0  0  0  0  0  0  0  0  0  0
    5.7308    2.6244    0.0000 O   0  0  0  0  0  0  0  0  0  0  0  0
    4.9747    3.9198    0.0000 C   0  0  0  0  0  0  0  0  0  0  0  0
   -0.7130    1.2950    0.0000 H   0  0  0  0  0  0  0  0  0  0  0  0
    0.4992   -1.2974    0.0000 C   0  0  0  0  0  0  0  0  0  0  0  0
   -1.0008   -1.3045    0.0000 C   0  0  0  0  0  0  0  0  0  0  0  0
   -1.7447   -2.6070    0.0000 C   0  0  0  0  0  0  0  0  0  0  0  0
   -0.9886   -3.9025    0.0000 C   0  0  0  0  0  0  0  0  0  0  0  0
    0.5114   -3.8955    0.0000 C   0  0  0  0  0  0  0  0  0  0  0  0
    1.2553   -2.5929    0.0000 C   0  0  0  0  0  0  0  0  0  0  0  0
   -3.2446   -2.6141    0.0000 O   0  0  0  0  0  0  0  0  0  0  0  0
   -3.9885   -3.9166    0.0000 C   0  0  0  0  0  0  0  0  0  0  0  0
  1  2  1  0  0  0  0
  1  6  2  0  0  0  0
  2  3  2  0  0  0  0
  3  4  1  0  0  0  0
  4  5  2  0  0  0  0
  5  6  1  0  0  0  0
  5 11  1  0  0  0  0
  6  7  1  0  0  0  0
  7  8  2  0  0  0  0
  8  9  1  0  0  0  0
  9 10  2  0  0  0  0
  9 11  1  0  0  0  0
  1 12  1  0  0  0  0
 13 14  1  0  0  0  0
 14 15  1  0  0  0  0
 14 17  1  0  0  0  0
 14 18  1  0  0  0  0
 15 16  2  0  0  0  0
  2 16  1  0  0  0  0
  3 17  1  0  0  0  0
 19 20  1  0  0  0  0
  4 19  1  0  0  0  0
  8 21  1  0  0  0  0
 22 23  1  0  0  0  0
 22 27  2  0  0  0  0
 23 24  2  0  0  0  0
 24 25  1  0  0  0  0
 24 28  1  0  0  0  0
 25 26  2  0  0  0  0
 26 27  1  0  0  0  0
 28 29  1  0  0  0  0
  7 22  1  0  0  0  0
M  END
> <score_Kier1>
0.517758

$$$$
suggested molecule #505
 MOE2019            2D

 29 32  0  0  0  0  0  0  0  0999 V2000
    3.4992   -1.2833    0.0000 C   0  0  0  0  0  0  0  0  0  1  0  0
    4.9992   -1.2762    0.0000 C   0  0  0  0  0  0  0  0  0  2  0  0
    5.7430    0.0263    0.0000 C   0  0  0  0  0  0  0  0  0  3  0  0
    4.9869    1.3218    0.0000 C   0  0  0  0  0  0  0  0  0  4  0  0
    3.4870    1.3147    0.0000 C   0  0  0  0  0  0  0  0  0  5  0  0
    2.7431    0.0122    0.0000 C   0  0  0  0  0  0  0  0  0  6  0  0
    1.2431    0.0051    0.0000 C   0  0  0  0  0  0  0  0  0  7  0  0
    0.4870    1.3006    0.0000 C   0  0  0  0  0  0  0  0  0  8  0  0
    1.2309    2.6032    0.0000 C   0  0  0  0  0  0  0  0  0  9  0  0
    0.4748    3.8987    0.0000 O   0  0  0  0  0  0  0  0  0 10  0  0
    2.7309    2.6102    0.0000 O   0  0  0  0  0  0  0  0  0 11  0  0
    2.9041   -2.3253    0.0000 H   0  0  0  0  0  0  0  0  0  0  0  0
    9.3017   -2.0060    0.0000 C   0  0  0  0  0  0  0  0  0  0  0  0
    7.9991   -1.2621    0.0000 C   0  0  0  0  0  0  0  0  0  0  0  0
    7.2552   -2.5647    0.0000 C   0  0  0  0  0  0  0  0  0  0  0  0
    5.7553   -2.5717    0.0000 C   0  0  0  0  0  0  0  0  0  0  0  0
    7.2430    0.0334    0.0000 O   0  0  0  0  0  0  0  0  0  0  0  0
    9.2946   -0.5060    0.0000 C   0  0  0  0  0  0  0  0  0  0  0  0
    5.7308    2.6244    0.0000 O   0  0  0  0  0  0  0  0  0  0  0  0
    4.9747    3.9198    0.0000 C   0  0  0  0  0  0  0  0  0  0  0  0
   -0.7130    1.2950    0.0000 H   0  0  0  0  0  0  0  0  0  0  0  0
    0.4992   -1.2974    0.0000 C   0  0  0  0  0  0  0  0  0  0  0  0
   -1.0008   -1.3045    0.0000 C   0  0  0  0  0  0  0  0  0  0  0  0
   -1.7447   -2.6070    0.0000 C   0  0  0  0  0  0  0  0  0  0  0  0
   -0.9886   -3.9025    0.0000 C   0  0  0  0  0  0  0  0  0  0  0  0
    0.5114   -3.8955    0.0000 C   0  0  0  0  0  0  0  0  0  0  0  0
    1.2553   -2.5929    0.0000 C   0  0  0  0  0  0  0  0  0  0  0  0
   -3.2446   -2.6141    0.0000 O   0  0  0  0  0  0  0  0  0  0  0  0
   -3.9885   -3.9166    0.0000 C   0  0  0  0  0  0  0  0  0  0  0  0
  1  2  1  0  0  0  0
  1  6  2  0  0  0  0
  2  3  2  0  0  0  0
  3  4  1  0  0  0  0
  4  5  2  0  0  0  0
  5  6  1  0  0  0  0
  5 11  1  0  0  0  0
  6  7  1  0  0  0  0
  7  8  2  0  0  0  0
  8  9  1  0  0  0  0
  9 10  2  0  0  0  0
  9 11  1  0  0  0  0
  1 12  1  0  0  0  0
 13 14  1  0  0  0  0
 14 15  1  0  0  0  0
 14 17  1  0  0  0  0
 14 18  1  0  0  0  0
 15 16  2  0  0  0  0
  2 16  1  0  0  0  0
  3 17  1  0  0  0  0
 19 20  1  0  0  0  0
  4 19  1  0  0  0  0
  8 21  1  0  0  0  0
 22 23  1  0  0  0  0
 22 27  2  0  0  0  0
 23 24  2  0  0  0  0
 24 25  1  0  0  0  0
 24 28  1  0  0  0  0
 25 26  2  0  0  0  0
 26 27  1  0  0  0  0
 28 29  1  0  0  0  0
  7 22  1  0  0  0  0
M  END
> <score_Kier2>
0.516457

$$$$
suggested molecule #506
 MOE2019            2D

 29 32  0  0  0  0  0  0  0  0999 V2000
    3.4992   -1.2833    0.0000 C   0  0  0  0  0  0  0  0  0  1  0  0
    4.9992   -1.2762    0.0000 C   0  0  0  0  0  0  0  0  0  2  0  0
    5.7430    0.0263    0.0000 C   0  0  0  0  0  0  0  0  0  3  0  0
    4.9869    1.3218    0.0000 C   0  0  0  0  0  0  0  0  0  4  0  0
    3.4870    1.3147    0.0000 C   0  0  0  0  0  0  0  0  0  5  0  0
    2.7431    0.0122    0.0000 C   0  0  0  0  0  0  0  0  0  6  0  0
    1.2431    0.0051    0.0000 C   0  0  0  0  0  0  0  0  0  7  0  0
    0.4870    1.3006    0.0000 C   0  0  0  0  0  0  0  0  0  8  0  0
    1.2309    2.6032    0.0000 C   0  0  0  0  0  0  0  0  0  9  0  0
    0.4748    3.8987    0.0000 O   0  0  0  0  0  0  0  0  0 10  0  0
    2.7309    2.6102    0.0000 O   0  0  0  0  0  0  0  0  0 11  0  0
    2.9041   -2.3253    0.0000 H   0  0  0  0  0  0  0  0  0  0  0  0
    9.3017   -2.0060    0.0000 C   0  0  0  0  0  0  0  0  0  0  0  0
    7.9991   -1.2621    0.0000 C   0  0  0  0  0  0  0  0  0  0  0  0
    7.2552   -2.5647    0.0000 C   0  0  0  0  0  0  0  0  0  0  0  0
    5.7553   -2.5717    0.0000 C   0  0  0  0  0  0  0  0  0  0  0  0
    7.2430    0.0334    0.0000 O   0  0  0  0  0  0  0  0  0  0  0  0
    9.2946   -0.5060    0.0000 C   0  0  0  0  0  0  0  0  0  0  0  0
    5.7308    2.6244    0.0000 O   0  0  0  0  0  0  0  0  0  0  0  0
    4.9747    3.9198    0.0000 C   0  0  0  0  0  0  0  0  0  0  0  0
   -0.7130    1.2950    0.0000 H   0  0  0  0  0  0  0  0  0  0  0  0
    0.4992   -1.2974    0.0000 C   0  0  0  0  0  0  0  0  0  0  0  0
   -1.0008   -1.3045    0.0000 C   0  0  0  0  0  0  0  0  0  0  0  0
   -1.7447   -2.6070    0.0000 C   0  0  0  0  0  0  0  0  0  0  0  0
   -0.9886   -3.9025    0.0000 C   0  0  0  0  0  0  0  0  0  0  0  0
    0.5114   -3.8955    0.0000 C   0  0  0  0  0  0  0  0  0  0  0  0
    1.2553   -2.5929    0.0000 C   0  0  0  0  0  0  0  0  0  0  0  0
   -3.2446   -2.6141    0.0000 O   0  0  0  0  0  0  0  0  0  0  0  0
   -3.9885   -3.9166    0.0000 C   0  0  0  0  0  0  0  0  0  0  0  0
  1  2  1  0  0  0  0
  1  6  2  0  0  0  0
  2  3  2  0  0  0  0
  3  4  1  0  0  0  0
  4  5  2  0  0  0  0
  5  6  1  0  0  0  0
  5 11  1  0  0  0  0
  6  7  1  0  0  0  0
  7  8  2  0  0  0  0
  8  9  1  0  0  0  0
  9 10  2  0  0  0  0
  9 11  1  0  0  0  0
  1 12  1  0  0  0  0
 13 14  1  0  0  0  0
 14 15  1  0  0  0  0
 14 17  1  0  0  0  0
 14 18  1  0  0  0  0
 15 16  2  0  0  0  0
  2 16  1  0  0  0  0
  3 17  1  0  0  0  0
 19 20  1  0  0  0  0
  4 19  1  0  0  0  0
  8 21  1  0  0  0  0
 22 23  1  0  0  0  0
 22 27  2  0  0  0  0
 23 24  2  0  0  0  0
 24 25  1  0  0  0  0
 24 28  1  0  0  0  0
 25 26  2  0  0  0  0
 26 27  1  0  0  0  0
 28 29  1  0  0  0  0
  7 22  1  0  0  0  0
M  END
> <score_Kier3>
0.511752

$$$$
suggested molecule #507
 MOE2019            2D

 29 32  0  0  0  0  0  0  0  0999 V2000
    3.4992   -1.2833    0.0000 C   0  0  0  0  0  0  0  0  0  1  0  0
    4.9992   -1.2762    0.0000 C   0  0  0  0  0  0  0  0  0  2  0  0
    5.7430    0.0263    0.0000 C   0  0  0  0  0  0  0  0  0  3  0  0
    4.9869    1.3218    0.0000 C   0  0  0  0  0  0  0  0  0  4  0  0
    3.4870    1.3147    0.0000 C   0  0  0  0  0  0  0  0  0  5  0  0
    2.7431    0.0122    0.0000 C   0  0  0  0  0  0  0  0  0  6  0  0
    1.2431    0.0051    0.0000 C   0  0  0  0  0  0  0  0  0  7  0  0
    0.4870    1.3006    0.0000 C   0  0  0  0  0  0  0  0  0  8  0  0
    1.2309    2.6032    0.0000 C   0  0  0  0  0  0  0  0  0  9  0  0
    0.4748    3.8987    0.0000 O   0  0  0  0  0  0  0  0  0 10  0  0
    2.7309    2.6102    0.0000 O   0  0  0  0  0  0  0  0  0 11  0  0
    2.9041   -2.3253    0.0000 H   0  0  0  0  0  0  0  0  0  0  0  0
    9.3017   -2.0060    0.0000 C   0  0  0  0  0  0  0  0  0  0  0  0
    7.9991   -1.2621    0.0000 C   0  0  0  0  0  0  0  0  0  0  0  0
    7.2552   -2.5647    0.0000 C   0  0  0  0  0  0  0  0  0  0  0  0
    5.7553   -2.5717    0.0000 C   0  0  0  0  0  0  0  0  0  0  0  0
    7.2430    0.0334    0.0000 O   0  0  0  0  0  0  0  0  0  0  0  0
    9.2946   -0.5060    0.0000 C   0  0  0  0  0  0  0  0  0  0  0  0
    5.7308    2.6244    0.0000 O   0  0  0  0  0  0  0  0  0  0  0  0
    4.9747    3.9198    0.0000 C   0  0  0  0  0  0  0  0  0  0  0  0
   -0.7130    1.2950    0.0000 H   0  0  0  0  0  0  0  0  0  0  0  0
    0.4992   -1.2974    0.0000 C   0  0  0  0  0  0  0  0  0  0  0  0
   -1.0008   -1.3045    0.0000 C   0  0  0  0  0  0  0  0  0  0  0  0
   -1.7447   -2.6070    0.0000 C   0  0  0  0  0  0  0  0  0  0  0  0
   -0.9886   -3.9025    0.0000 C   0  0  0  0  0  0  0  0  0  0  0  0
    0.5114   -3.8955    0.0000 C   0  0  0  0  0  0  0  0  0  0  0  0
    1.2553   -2.5929    0.0000 C   0  0  0  0  0  0  0  0  0  0  0  0
   -3.2446   -2.6141    0.0000 O   0  0  0  0  0  0  0  0  0  0  0  0
   -3.9885   -3.9166    0.0000 C   0  0  0  0  0  0  0  0  0  0  0  0
  1  2  1  0  0  0  0
  1  6  2  0  0  0  0
  2  3  2  0  0  0  0
  3  4  1  0  0  0  0
  4  5  2  0  0  0  0
  5  6  1  0  0  0  0
  5 11  1  0  0  0  0
  6  7  1  0  0  0  0
  7  8  2  0  0  0  0
  8  9  1  0  0  0  0
  9 10  2  0  0  0  0
  9 11  1  0  0  0  0
  1 12  1  0  0  0  0
 13 14  1  0  0  0  0
 14 15  1  0  0  0  0
 14 17  1  0  0  0  0
 14 18  1  0  0  0  0
 15 16  2  0  0  0  0
  2 16  1  0  0  0  0
  3 17  1  0  0  0  0
 19 20  1  0  0  0  0
  4 19  1  0  0  0  0
  8 21  1  0  0  0  0
 22 23  1  0  0  0  0
 22 27  2  0  0  0  0
 23 24  2  0  0  0  0
 24 25  1  0  0  0  0
 24 28  1  0  0  0  0
 25 26  2  0  0  0  0
 26 27  1  0  0  0  0
 28 29  1  0  0  0  0
  7 22  1  0  0  0  0
M  END
> <score_KierA1>
0.517812

$$$$
suggested molecule #508
 MOE2019            2D

 29 32  0  0  0  0  0  0  0  0999 V2000
    3.4992   -1.2833    0.0000 C   0  0  0  0  0  0  0  0  0  1  0  0
    4.9992   -1.2762    0.0000 C   0  0  0  0  0  0  0  0  0  2  0  0
    5.7430    0.0263    0.0000 C   0  0  0  0  0  0  0  0  0  3  0  0
    4.9869    1.3218    0.0000 C   0  0  0  0  0  0  0  0  0  4  0  0
    3.4870    1.3147    0.0000 C   0  0  0  0  0  0  0  0  0  5  0  0
    2.7431    0.0122    0.0000 C   0  0  0  0  0  0  0  0  0  6  0  0
    1.2431    0.0051    0.0000 C   0  0  0  0  0  0  0  0  0  7  0  0
    0.4870    1.3006    0.0000 C   0  0  0  0  0  0  0  0  0  8  0  0
    1.2309    2.6032    0.0000 C   0  0  0  0  0  0  0  0  0  9  0  0
    0.4748    3.8987    0.0000 O   0  0  0  0  0  0  0  0  0 10  0  0
    2.7309    2.6102    0.0000 O   0  0  0  0  0  0  0  0  0 11  0  0
    2.9041   -2.3253    0.0000 H   0  0  0  0  0  0  0  0  0  0  0  0
    9.3017   -2.0060    0.0000 C   0  0  0  0  0  0  0  0  0  0  0  0
    7.9991   -1.2621    0.0000 C   0  0  0  0  0  0  0  0  0  0  0  0
    7.2552   -2.5647    0.0000 C   0  0  0  0  0  0  0  0  0  0  0  0
    5.7553   -2.5717    0.0000 C   0  0  0  0  0  0  0  0  0  0  0  0
    7.2430    0.0334    0.0000 O   0  0  0  0  0  0  0  0  0  0  0  0
    9.2946   -0.5060    0.0000 C   0  0  0  0  0  0  0  0  0  0  0  0
    5.7308    2.6244    0.0000 O   0  0  0  0  0  0  0  0  0  0  0  0
    4.9747    3.9198    0.0000 C   0  0  0  0  0  0  0  0  0  0  0  0
   -0.7130    1.2950    0.0000 H   0  0  0  0  0  0  0  0  0  0  0  0
    0.4992   -1.2974    0.0000 C   0  0  0  0  0  0  0  0  0  0  0  0
   -1.0008   -1.3045    0.0000 C   0  0  0  0  0  0  0  0  0  0  0  0
   -1.7447   -2.6070    0.0000 C   0  0  0  0  0  0  0  0  0  0  0  0
   -0.9886   -3.9025    0.0000 C   0  0  0  0  0  0  0  0  0  0  0  0
    0.5114   -3.8955    0.0000 C   0  0  0  0  0  0  0  0  0  0  0  0
    1.2553   -2.5929    0.0000 C   0  0  0  0  0  0  0  0  0  0  0  0
   -3.2446   -2.6141    0.0000 O   0  0  0  0  0  0  0  0  0  0  0  0
   -3.9885   -3.9166    0.0000 C   0  0  0  0  0  0  0  0  0  0  0  0
  1  2  1  0  0  0  0
  1  6  2  0  0  0  0
  2  3  2  0  0  0  0
  3  4  1  0  0  0  0
  4  5  2  0  0  0  0
  5  6  1  0  0  0  0
  5 11  1  0  0  0  0
  6  7  1  0  0  0  0
  7  8  2  0  0  0  0
  8  9  1  0  0  0  0
  9 10  2  0  0  0  0
  9 11  1  0  0  0  0
  1 12  1  0  0  0  0
 13 14  1  0  0  0  0
 14 15  1  0  0  0  0
 14 17  1  0  0  0  0
 14 18  1  0  0  0  0
 15 16  2  0  0  0  0
  2 16  1  0  0  0  0
  3 17  1  0  0  0  0
 19 20  1  0  0  0  0
  4 19  1  0  0  0  0
  8 21  1  0  0  0  0
 22 23  1  0  0  0  0
 22 27  2  0  0  0  0
 23 24  2  0  0  0  0
 24 25  1  0  0  0  0
 24 28  1  0  0  0  0
 25 26  2  0  0  0  0
 26 27  1  0  0  0  0
 28 29  1  0  0  0  0
  7 22  1  0  0  0  0
M  END
> <score_KierA2>
0.51686

$$$$
suggested molecule #509
 MOE2019            2D

 29 32  0  0  0  0  0  0  0  0999 V2000
    3.4992   -1.2833    0.0000 C   0  0  0  0  0  0  0  0  0  1  0  0
    4.9992   -1.2762    0.0000 C   0  0  0  0  0  0  0  0  0  2  0  0
    5.7430    0.0263    0.0000 C   0  0  0  0  0  0  0  0  0  3  0  0
    4.9869    1.3218    0.0000 C   0  0  0  0  0  0  0  0  0  4  0  0
    3.4870    1.3147    0.0000 C   0  0  0  0  0  0  0  0  0  5  0  0
    2.7431    0.0122    0.0000 C   0  0  0  0  0  0  0  0  0  6  0  0
    1.2431    0.0051    0.0000 C   0  0  0  0  0  0  0  0  0  7  0  0
    0.4870    1.3006    0.0000 C   0  0  0  0  0  0  0  0  0  8  0  0
    1.2309    2.6032    0.0000 C   0  0  0  0  0  0  0  0  0  9  0  0
    0.4748    3.8987    0.0000 O   0  0  0  0  0  0  0  0  0 10  0  0
    2.7309    2.6102    0.0000 O   0  0  0  0  0  0  0  0  0 11  0  0
    2.9041   -2.3253    0.0000 H   0  0  0  0  0  0  0  0  0  0  0  0
    9.3017   -2.0060    0.0000 C   0  0  0  0  0  0  0  0  0  0  0  0
    7.9991   -1.2621    0.0000 C   0  0  0  0  0  0  0  0  0  0  0  0
    7.2552   -2.5647    0.0000 C   0  0  0  0  0  0  0  0  0  0  0  0
    5.7553   -2.5717    0.0000 C   0  0  0  0  0  0  0  0  0  0  0  0
    7.2430    0.0334    0.0000 O   0  0  0  0  0  0  0  0  0  0  0  0
    9.2946   -0.5060    0.0000 C   0  0  0  0  0  0  0  0  0  0  0  0
    5.7308    2.6244    0.0000 O   0  0  0  0  0  0  0  0  0  0  0  0
    4.9747    3.9198    0.0000 C   0  0  0  0  0  0  0  0  0  0  0  0
   -0.7130    1.2950    0.0000 H   0  0  0  0  0  0  0  0  0  0  0  0
    0.4992   -1.2974    0.0000 C   0  0  0  0  0  0  0  0  0  0  0  0
   -1.0008   -1.3045    0.0000 C   0  0  0  0  0  0  0  0  0  0  0  0
   -1.7447   -2.6070    0.0000 C   0  0  0  0  0  0  0  0  0  0  0  0
   -0.9886   -3.9025    0.0000 C   0  0  0  0  0  0  0  0  0  0  0  0
    0.5114   -3.8955    0.0000 C   0  0  0  0  0  0  0  0  0  0  0  0
    1.2553   -2.5929    0.0000 C   0  0  0  0  0  0  0  0  0  0  0  0
   -3.2446   -2.6141    0.0000 O   0  0  0  0  0  0  0  0  0  0  0  0
   -3.9885   -3.9166    0.0000 C   0  0  0  0  0  0  0  0  0  0  0  0
  1  2  1  0  0  0  0
  1  6  2  0  0  0  0
  2  3  2  0  0  0  0
  3  4  1  0  0  0  0
  4  5  2  0  0  0  0
  5  6  1  0  0  0  0
  5 11  1  0  0  0  0
  6  7  1  0  0  0  0
  7  8  2  0  0  0  0
  8  9  1  0  0  0  0
  9 10  2  0  0  0  0
  9 11  1  0  0  0  0
  1 12  1  0  0  0  0
 13 14  1  0  0  0  0
 14 15  1  0  0  0  0
 14 17  1  0  0  0  0
 14 18  1  0  0  0  0
 15 16  2  0  0  0  0
  2 16  1  0  0  0  0
  3 17  1  0  0  0  0
 19 20  1  0  0  0  0
  4 19  1  0  0  0  0
  8 21  1  0  0  0  0
 22 23  1  0  0  0  0
 22 27  2  0  0  0  0
 23 24  2  0  0  0  0
 24 25  1  0  0  0  0
 24 28  1  0  0  0  0
 25 26  2  0  0  0  0
 26 27  1  0  0  0  0
 28 29  1  0  0  0  0
  7 22  1  0  0  0  0
M  END
> <score_KierA3>
0.512476

$$$$
suggested molecule #510
 MOE2019            2D

 29 32  0  0  0  0  0  0  0  0999 V2000
    3.4992   -1.2833    0.0000 C   0  0  0  0  0  0  0  0  0  1  0  0
    4.9992   -1.2762    0.0000 C   0  0  0  0  0  0  0  0  0  2  0  0
    5.7430    0.0263    0.0000 C   0  0  0  0  0  0  0  0  0  3  0  0
    4.9869    1.3218    0.0000 C   0  0  0  0  0  0  0  0  0  4  0  0
    3.4870    1.3147    0.0000 C   0  0  0  0  0  0  0  0  0  5  0  0
    2.7431    0.0122    0.0000 C   0  0  0  0  0  0  0  0  0  6  0  0
    1.2431    0.0051    0.0000 C   0  0  0  0  0  0  0  0  0  7  0  0
    0.4870    1.3006    0.0000 C   0  0  0  0  0  0  0  0  0  8  0  0
    1.2309    2.6032    0.0000 C   0  0  0  0  0  0  0  0  0  9  0  0
    0.4748    3.8987    0.0000 O   0  0  0  0  0  0  0  0  0 10  0  0
    2.7309    2.6102    0.0000 O   0  0  0  0  0  0  0  0  0 11  0  0
    2.9041   -2.3253    0.0000 H   0  0  0  0  0  0  0  0  0  0  0  0
    9.3017   -2.0060    0.0000 C   0  0  0  0  0  0  0  0  0  0  0  0
    7.9991   -1.2621    0.0000 C   0  0  0  0  0  0  0  0  0  0  0  0
    7.2552   -2.5647    0.0000 C   0  0  0  0  0  0  0  0  0  0  0  0
    5.7553   -2.5717    0.0000 C   0  0  0  0  0  0  0  0  0  0  0  0
    7.2430    0.0334    0.0000 O   0  0  0  0  0  0  0  0  0  0  0  0
    9.2946   -0.5060    0.0000 C   0  0  0  0  0  0  0  0  0  0  0  0
    5.7308    2.6244    0.0000 O   0  0  0  0  0  0  0  0  0  0  0  0
    4.9747    3.9198    0.0000 C   0  0  0  0  0  0  0  0  0  0  0  0
   -0.7130    1.2950    0.0000 H   0  0  0  0  0  0  0  0  0  0  0  0
    0.4992   -1.2974    0.0000 C   0  0  0  0  0  0  0  0  0  0  0  0
   -1.0008   -1.3045    0.0000 C   0  0  0  0  0  0  0  0  0  0  0  0
   -1.7447   -2.6070    0.0000 C   0  0  0  0  0  0  0  0  0  0  0  0
   -0.9886   -3.9025    0.0000 C   0  0  0  0  0  0  0  0  0  0  0  0
    0.5114   -3.8955    0.0000 C   0  0  0  0  0  0  0  0  0  0  0  0
    1.2553   -2.5929    0.0000 C   0  0  0  0  0  0  0  0  0  0  0  0
   -3.2446   -2.6141    0.0000 O   0  0  0  0  0  0  0  0  0  0  0  0
   -3.9885   -3.9166    0.0000 C   0  0  0  0  0  0  0  0  0  0  0  0
  1  2  1  0  0  0  0
  1  6  2  0  0  0  0
  2  3  2  0  0  0  0
  3  4  1  0  0  0  0
  4  5  2  0  0  0  0
  5  6  1  0  0  0  0
  5 11  1  0  0  0  0
  6  7  1  0  0  0  0
  7  8  2  0  0  0  0
  8  9  1  0  0  0  0
  9 10  2  0  0  0  0
  9 11  1  0  0  0  0
  1 12  1  0  0  0  0
 13 14  1  0  0  0  0
 14 15  1  0  0  0  0
 14 17  1  0  0  0  0
 14 18  1  0  0  0  0
 15 16  2  0  0  0  0
  2 16  1  0  0  0  0
  3 17  1  0  0  0  0
 19 20  1  0  0  0  0
  4 19  1  0  0  0  0
  8 21  1  0  0  0  0
 22 23  1  0  0  0  0
 22 27  2  0  0  0  0
 23 24  2  0  0  0  0
 24 25  1  0  0  0  0
 24 28  1  0  0  0  0
 25 26  2  0  0  0  0
 26 27  1  0  0  0  0
 28 29  1  0  0  0  0
  7 22  1  0  0  0  0
M  END
> <score_KierFlex>
0.516624

$$$$
suggested molecule #511
 MOE2019            2D

 23 25  0  0  0  0  0  0  0  0999 V2000
    3.4992   -1.2833    0.0000 C   0  0  0  0  0  0  0  0  0  1  0  0
    4.9992   -1.2762    0.0000 C   0  0  0  0  0  0  0  0  0  2  0  0
    5.7430    0.0263    0.0000 C   0  0  0  0  0  0  0  0  0  3  0  0
    4.9869    1.3218    0.0000 C   0  0  0  0  0  0  0  0  0  4  0  0
    3.4870    1.3147    0.0000 C   0  0  0  0  0  0  0  0  0  5  0  0
    2.7431    0.0122    0.0000 C   0  0  0  0  0  0  0  0  0  6  0  0
    1.2431    0.0051    0.0000 C   0  0  0  0  0  0  0  0  0  7  0  0
    0.4870    1.3006    0.0000 C   0  0  0  0  0  0  0  0  0  8  0  0
    1.2309    2.6032    0.0000 C   0  0  0  0  0  0  0  0  0  9  0  0
    0.4748    3.8987    0.0000 O   0  0  0  0  0  0  0  0  0 10  0  0
    2.7309    2.6102    0.0000 O   0  0  0  0  0  0  0  0  0 11  0  0
    2.9041   -2.3253    0.0000 H   0  0  0  0  0  0  0  0  0  0  0  0
    9.3017   -2.0060    0.0000 C   0  0  0  0  0  0  0  0  0  0  0  0
    7.9991   -1.2621    0.0000 C   0  0  0  0  0  0  0  0  0  0  0  0
    7.2552   -2.5647    0.0000 C   0  0  0  0  0  0  0  0  0  0  0  0
    5.7553   -2.5717    0.0000 C   0  0  0  0  0  0  0  0  0  0  0  0
    7.2430    0.0334    0.0000 O   0  0  0  0  0  0  0  0  0  0  0  0
    9.2946   -0.5060    0.0000 C   0  0  0  0  0  0  0  0  0  0  0  0
    5.7308    2.6244    0.0000 O   0  0  0  0  0  0  0  0  0  0  0  0
    4.9747    3.9198    0.0000 C   0  0  0  0  0  0  0  0  0  0  0  0
   -0.7130    1.2950    0.0000 H   0  0  0  0  0  0  0  0  0  0  0  0
    0.4992   -1.2974    0.0000 O   0  0  0  0  0  0  0  0  0  0  0  0
   -1.0008   -1.3045    0.0000 C   0  0  0  0  0  0  0  0  0  0  0  0
  1  2  1  0  0  0  0
  1  6  2  0  0  0  0
  2  3  2  0  0  0  0
  3  4  1  0  0  0  0
  4  5  2  0  0  0  0
  5  6  1  0  0  0  0
  5 11  1  0  0  0  0
  6  7  1  0  0  0  0
  7  8  2  0  0  0  0
  8  9  1  0  0  0  0
  9 10  2  0  0  0  0
  9 11  1  0  0  0  0
  1 12  1  0  0  0  0
 13 14  1  0  0  0  0
 14 15  1  0  0  0  0
 14 17  1  0  0  0  0
 14 18  1  0  0  0  0
 15 16  2  0  0  0  0
  2 16  1  0  0  0  0
  3 17  1  0  0  0  0
 19 20  1  0  0  0  0
  4 19  1  0  0  0  0
  8 21  1  0  0  0  0
 22 23  1  0  0  0  0
  7 22  1  0  0  0  0
M  END
> <score_Kier1>
0.517734

$$$$
suggested molecule #512
 MOE2019            2D

 23 25  0  0  0  0  0  0  0  0999 V2000
    3.4992   -1.2833    0.0000 C   0  0  0  0  0  0  0  0  0  1  0  0
    4.9992   -1.2762    0.0000 C   0  0  0  0  0  0  0  0  0  2  0  0
    5.7430    0.0263    0.0000 C   0  0  0  0  0  0  0  0  0  3  0  0
    4.9869    1.3218    0.0000 C   0  0  0  0  0  0  0  0  0  4  0  0
    3.4870    1.3147    0.0000 C   0  0  0  0  0  0  0  0  0  5  0  0
    2.7431    0.0122    0.0000 C   0  0  0  0  0  0  0  0  0  6  0  0
    1.2431    0.0051    0.0000 C   0  0  0  0  0  0  0  0  0  7  0  0
    0.4870    1.3006    0.0000 C   0  0  0  0  0  0  0  0  0  8  0  0
    1.2309    2.6032    0.0000 C   0  0  0  0  0  0  0  0  0  9  0  0
    0.4748    3.8987    0.0000 O   0  0  0  0  0  0  0  0  0 10  0  0
    2.7309    2.6102    0.0000 O   0  0  0  0  0  0  0  0  0 11  0  0
    2.9041   -2.3253    0.0000 H   0  0  0  0  0  0  0  0  0  0  0  0
    9.3017   -2.0060    0.0000 C   0  0  0  0  0  0  0  0  0  0  0  0
    7.9991   -1.2621    0.0000 C   0  0  0  0  0  0  0  0  0  0  0  0
    7.2552   -2.5647    0.0000 C   0  0  0  0  0  0  0  0  0  0  0  0
    5.7553   -2.5717    0.0000 C   0  0  0  0  0  0  0  0  0  0  0  0
    7.2430    0.0334    0.0000 O   0  0  0  0  0  0  0  0  0  0  0  0
    9.2946   -0.5060    0.0000 C   0  0  0  0  0  0  0  0  0  0  0  0
    5.7308    2.6244    0.0000 O   0  0  0  0  0  0  0  0  0  0  0  0
    4.9747    3.9198    0.0000 C   0  0  0  0  0  0  0  0  0  0  0  0
   -0.7130    1.2950    0.0000 H   0  0  0  0  0  0  0  0  0  0  0  0
    0.4992   -1.2974    0.0000 O   0  0  0  0  0  0  0  0  0  0  0  0
   -1.0008   -1.3045    0.0000 C   0  0  0  0  0  0  0  0  0  0  0  0
  1  2  1  0  0  0  0
  1  6  2  0  0  0  0
  2  3  2  0  0  0  0
  3  4  1  0  0  0  0
  4  5  2  0  0  0  0
  5  6  1  0  0  0  0
  5 11  1  0  0  0  0
  6  7  1  0  0  0  0
  7  8  2  0  0  0  0
  8  9  1  0  0  0  0
  9 10  2  0  0  0  0
  9 11  1  0  0  0  0
  1 12  1  0  0  0  0
 13 14  1  0  0  0  0
 14 15  1  0  0  0  0
 14 17  1  0  0  0  0
 14 18  1  0  0  0  0
 15 16  2  0  0  0  0
  2 16  1  0  0  0  0
  3 17  1  0  0  0  0
 19 20  1  0  0  0  0
  4 19  1  0  0  0  0
  8 21  1  0  0  0  0
 22 23  1  0  0  0  0
  7 22  1  0  0  0  0
M  END
> <score_Kier3>
0.511751

$$$$
suggested molecule #513
 MOE2019            2D

 23 25  0  0  0  0  0  0  0  0999 V2000
    3.4992   -1.2833    0.0000 C   0  0  0  0  0  0  0  0  0  1  0  0
    4.9992   -1.2762    0.0000 C   0  0  0  0  0  0  0  0  0  2  0  0
    5.7430    0.0263    0.0000 C   0  0  0  0  0  0  0  0  0  3  0  0
    4.9869    1.3218    0.0000 C   0  0  0  0  0  0  0  0  0  4  0  0
    3.4870    1.3147    0.0000 C   0  0  0  0  0  0  0  0  0  5  0  0
    2.7431    0.0122    0.0000 C   0  0  0  0  0  0  0  0  0  6  0  0
    1.2431    0.0051    0.0000 C   0  0  0  0  0  0  0  0  0  7  0  0
    0.4870    1.3006    0.0000 C   0  0  0  0  0  0  0  0  0  8  0  0
    1.2309    2.6032    0.0000 C   0  0  0  0  0  0  0  0  0  9  0  0
    0.4748    3.8987    0.0000 O   0  0  0  0  0  0  0  0  0 10  0  0
    2.7309    2.6102    0.0000 O   0  0  0  0  0  0  0  0  0 11  0  0
    2.9041   -2.3253    0.0000 H   0  0  0  0  0  0  0  0  0  0  0  0
    9.3017   -2.0060    0.0000 C   0  0  0  0  0  0  0  0  0  0  0  0
    7.9991   -1.2621    0.0000 C   0  0  0  0  0  0  0  0  0  0  0  0
    7.2552   -2.5647    0.0000 C   0  0  0  0  0  0  0  0  0  0  0  0
    5.7553   -2.5717    0.0000 C   0  0  0  0  0  0  0  0  0  0  0  0
    7.2430    0.0334    0.0000 O   0  0  0  0  0  0  0  0  0  0  0  0
    9.2946   -0.5060    0.0000 C   0  0  0  0  0  0  0  0  0  0  0  0
    5.7308    2.6244    0.0000 O   0  0  0  0  0  0  0  0  0  0  0  0
    4.9747    3.9198    0.0000 C   0  0  0  0  0  0  0  0  0  0  0  0
   -0.7130    1.2950    0.0000 H   0  0  0  0  0  0  0  0  0  0  0  0
    0.4992   -1.2974    0.0000 O   0  0  0  0  0  0  0  0  0  0  0  0
   -1.0008   -1.3045    0.0000 C   0  0  0  0  0  0  0  0  0  0  0  0
  1  2  1  0  0  0  0
  1  6  2  0  0  0  0
  2  3  2  0  0  0  0
  3  4  1  0  0  0  0
  4  5  2  0  0  0  0
  5  6  1  0  0  0  0
  5 11  1  0  0  0  0
  6  7  1  0  0  0  0
  7  8  2  0  0  0  0
  8  9  1  0  0  0  0
  9 10  2  0  0  0  0
  9 11  1  0  0  0  0
  1 12  1  0  0  0  0
 13 14  1  0  0  0  0
 14 15  1  0  0  0  0
 14 17  1  0  0  0  0
 14 18  1  0  0  0  0
 15 16  2  0  0  0  0
  2 16  1  0  0  0  0
  3 17  1  0  0  0  0
 19 20  1  0  0  0  0
  4 19  1  0  0  0  0
  8 21  1  0  0  0  0
 22 23  1  0  0  0  0
  7 22  1  0  0  0  0
M  END
> <score_KierA1>
0.517782

$$$$
suggested molecule #514
 MOE2019            2D

 23 25  0  0  0  0  0  0  0  0999 V2000
    3.4992   -1.2833    0.0000 C   0  0  0  0  0  0  0  0  0  1  0  0
    4.9992   -1.2762    0.0000 C   0  0  0  0  0  0  0  0  0  2  0  0
    5.7430    0.0263    0.0000 C   0  0  0  0  0  0  0  0  0  3  0  0
    4.9869    1.3218    0.0000 C   0  0  0  0  0  0  0  0  0  4  0  0
    3.4870    1.3147    0.0000 C   0  0  0  0  0  0  0  0  0  5  0  0
    2.7431    0.0122    0.0000 C   0  0  0  0  0  0  0  0  0  6  0  0
    1.2431    0.0051    0.0000 C   0  0  0  0  0  0  0  0  0  7  0  0
    0.4870    1.3006    0.0000 C   0  0  0  0  0  0  0  0  0  8  0  0
    1.2309    2.6032    0.0000 C   0  0  0  0  0  0  0  0  0  9  0  0
    0.4748    3.8987    0.0000 O   0  0  0  0  0  0  0  0  0 10  0  0
    2.7309    2.6102    0.0000 O   0  0  0  0  0  0  0  0  0 11  0  0
    2.9041   -2.3253    0.0000 H   0  0  0  0  0  0  0  0  0  0  0  0
    9.3017   -2.0060    0.0000 C   0  0  0  0  0  0  0  0  0  0  0  0
    7.9991   -1.2621    0.0000 C   0  0  0  0  0  0  0  0  0  0  0  0
    7.2552   -2.5647    0.0000 C   0  0  0  0  0  0  0  0  0  0  0  0
    5.7553   -2.5717    0.0000 C   0  0  0  0  0  0  0  0  0  0  0  0
    7.2430    0.0334    0.0000 O   0  0  0  0  0  0  0  0  0  0  0  0
    9.2946   -0.5060    0.0000 C   0  0  0  0  0  0  0  0  0  0  0  0
    5.7308    2.6244    0.0000 O   0  0  0  0  0  0  0  0  0  0  0  0
    4.9747    3.9198    0.0000 C   0  0  0  0  0  0  0  0  0  0  0  0
   -0.7130    1.2950    0.0000 H   0  0  0  0  0  0  0  0  0  0  0  0
    0.4992   -1.2974    0.0000 O   0  0  0  0  0  0  0  0  0  0  0  0
   -1.0008   -1.3045    0.0000 C   0  0  0  0  0  0  0  0  0  0  0  0
  1  2  1  0  0  0  0
  1  6  2  0  0  0  0
  2  3  2  0  0  0  0
  3  4  1  0  0  0  0
  4  5  2  0  0  0  0
  5  6  1  0  0  0  0
  5 11  1  0  0  0  0
  6  7  1  0  0  0  0
  7  8  2  0  0  0  0
  8  9  1  0  0  0  0
  9 10  2  0  0  0  0
  9 11  1  0  0  0  0
  1 12  1  0  0  0  0
 13 14  1  0  0  0  0
 14 15  1  0  0  0  0
 14 17  1  0  0  0  0
 14 18  1  0  0  0  0
 15 16  2  0  0  0  0
  2 16  1  0  0  0  0
  3 17  1  0  0  0  0
 19 20  1  0  0  0  0
  4 19  1  0  0  0  0
  8 21  1  0  0  0  0
 22 23  1  0  0  0  0
  7 22  1  0  0  0  0
M  END
> <score_KierA2>
0.516838

$$$$
suggested molecule #515
 MOE2019            2D

 23 25  0  0  0  0  0  0  0  0999 V2000
    3.4992   -1.2833    0.0000 C   0  0  0  0  0  0  0  0  0  1  0  0
    4.9992   -1.2762    0.0000 C   0  0  0  0  0  0  0  0  0  2  0  0
    5.7430    0.0263    0.0000 C   0  0  0  0  0  0  0  0  0  3  0  0
    4.9869    1.3218    0.0000 C   0  0  0  0  0  0  0  0  0  4  0  0
    3.4870    1.3147    0.0000 C   0  0  0  0  0  0  0  0  0  5  0  0
    2.7431    0.0122    0.0000 C   0  0  0  0  0  0  0  0  0  6  0  0
    1.2431    0.0051    0.0000 C   0  0  0  0  0  0  0  0  0  7  0  0
    0.4870    1.3006    0.0000 C   0  0  0  0  0  0  0  0  0  8  0  0
    1.2309    2.6032    0.0000 C   0  0  0  0  0  0  0  0  0  9  0  0
    0.4748    3.8987    0.0000 O   0  0  0  0  0  0  0  0  0 10  0  0
    2.7309    2.6102    0.0000 O   0  0  0  0  0  0  0  0  0 11  0  0
    2.9041   -2.3253    0.0000 H   0  0  0  0  0  0  0  0  0  0  0  0
    9.3017   -2.0060    0.0000 C   0  0  0  0  0  0  0  0  0  0  0  0
    7.9991   -1.2621    0.0000 C   0  0  0  0  0  0  0  0  0  0  0  0
    7.2552   -2.5647    0.0000 C   0  0  0  0  0  0  0  0  0  0  0  0
    5.7553   -2.5717    0.0000 C   0  0  0  0  0  0  0  0  0  0  0  0
    7.2430    0.0334    0.0000 O   0  0  0  0  0  0  0  0  0  0  0  0
    9.2946   -0.5060    0.0000 C   0  0  0  0  0  0  0  0  0  0  0  0
    5.7308    2.6244    0.0000 O   0  0  0  0  0  0  0  0  0  0  0  0
    4.9747    3.9198    0.0000 C   0  0  0  0  0  0  0  0  0  0  0  0
   -0.7130    1.2950    0.0000 H   0  0  0  0  0  0  0  0  0  0  0  0
    0.4992   -1.2974    0.0000 O   0  0  0  0  0  0  0  0  0  0  0  0
   -1.0008   -1.3045    0.0000 C   0  0  0  0  0  0  0  0  0  0  0  0
  1  2  1  0  0  0  0
  1  6  2  0  0  0  0
  2  3  2  0  0  0  0
  3  4  1  0  0  0  0
  4  5  2  0  0  0  0
  5  6  1  0  0  0  0
  5 11  1  0  0  0  0
  6  7  1  0  0  0  0
  7  8  2  0  0  0  0
  8  9  1  0  0  0  0
  9 10  2  0  0  0  0
  9 11  1  0  0  0  0
  1 12  1  0  0  0  0
 13 14  1  0  0  0  0
 14 15  1  0  0  0  0
 14 17  1  0  0  0  0
 14 18  1  0  0  0  0
 15 16  2  0  0  0  0
  2 16  1  0  0  0  0
  3 17  1  0  0  0  0
 19 20  1  0  0  0  0
  4 19  1  0  0  0  0
  8 21  1  0  0  0  0
 22 23  1  0  0  0  0
  7 22  1  0  0  0  0
M  END
> <score_KierA3>
0.512467

$$$$
suggested molecule #516
 MOE2019            2D

 23 25  0  0  0  0  0  0  0  0999 V2000
    3.4992   -1.2833    0.0000 C   0  0  0  0  0  0  0  0  0  1  0  0
    4.9992   -1.2762    0.0000 C   0  0  0  0  0  0  0  0  0  2  0  0
    5.7430    0.0263    0.0000 C   0  0  0  0  0  0  0  0  0  3  0  0
    4.9869    1.3218    0.0000 C   0  0  0  0  0  0  0  0  0  4  0  0
    3.4870    1.3147    0.0000 C   0  0  0  0  0  0  0  0  0  5  0  0
    2.7431    0.0122    0.0000 C   0  0  0  0  0  0  0  0  0  6  0  0
    1.2431    0.0051    0.0000 C   0  0  0  0  0  0  0  0  0  7  0  0
    0.4870    1.3006    0.0000 C   0  0  0  0  0  0  0  0  0  8  0  0
    1.2309    2.6032    0.0000 C   0  0  0  0  0  0  0  0  0  9  0  0
    0.4748    3.8987    0.0000 O   0  0  0  0  0  0  0  0  0 10  0  0
    2.7309    2.6102    0.0000 O   0  0  0  0  0  0  0  0  0 11  0  0
    2.9041   -2.3253    0.0000 H   0  0  0  0  0  0  0  0  0  0  0  0
    9.3017   -2.0060    0.0000 C   0  0  0  0  0  0  0  0  0  0  0  0
    7.9991   -1.2621    0.0000 C   0  0  0  0  0  0  0  0  0  0  0  0
    7.2552   -2.5647    0.0000 C   0  0  0  0  0  0  0  0  0  0  0  0
    5.7553   -2.5717    0.0000 C   0  0  0  0  0  0  0  0  0  0  0  0
    7.2430    0.0334    0.0000 O   0  0  0  0  0  0  0  0  0  0  0  0
    9.2946   -0.5060    0.0000 C   0  0  0  0  0  0  0  0  0  0  0  0
    5.7308    2.6244    0.0000 O   0  0  0  0  0  0  0  0  0  0  0  0
    4.9747    3.9198    0.0000 C   0  0  0  0  0  0  0  0  0  0  0  0
   -0.7130    1.2950    0.0000 H   0  0  0  0  0  0  0  0  0  0  0  0
    0.4992   -1.2974    0.0000 O   0  0  0  0  0  0  0  0  0  0  0  0
   -1.0008   -1.3045    0.0000 C   0  0  0  0  0  0  0  0  0  0  0  0
  1  2  1  0  0  0  0
  1  6  2  0  0  0  0
  2  3  2  0  0  0  0
  3  4  1  0  0  0  0
  4  5  2  0  0  0  0
  5  6  1  0  0  0  0
  5 11  1  0  0  0  0
  6  7  1  0  0  0  0
  7  8  2  0  0  0  0
  8  9  1  0  0  0  0
  9 10  2  0  0  0  0
  9 11  1  0  0  0  0
  1 12  1  0  0  0  0
 13 14  1  0  0  0  0
 14 15  1  0  0  0  0
 14 17  1  0  0  0  0
 14 18  1  0  0  0  0
 15 16  2  0  0  0  0
  2 16  1  0  0  0  0
  3 17  1  0  0  0  0
 19 20  1  0  0  0  0
  4 19  1  0  0  0  0
  8 21  1  0  0  0  0
 22 23  1  0  0  0  0
  7 22  1  0  0  0  0
M  END
> <score_KierFlex>
0.516598

$$$$
suggested molecule #517
 MOE2019            2D

 32 35  0  0  0  0  0  0  0  0999 V2000
    3.4992   -1.2833    0.0000 C   0  0  0  0  0  0  0  0  0  1  0  0
    4.9992   -1.2762    0.0000 C   0  0  0  0  0  0  0  0  0  2  0  0
    5.7430    0.0263    0.0000 C   0  0  0  0  0  0  0  0  0  3  0  0
    4.9869    1.3218    0.0000 C   0  0  0  0  0  0  0  0  0  4  0  0
    3.4870    1.3147    0.0000 C   0  0  0  0  0  0  0  0  0  5  0  0
    2.7431    0.0122    0.0000 C   0  0  0  0  0  0  0  0  0  6  0  0
    1.2431    0.0051    0.0000 C   0  0  0  0  0  0  0  0  0  7  0  0
    0.4870    1.3006    0.0000 C   0  0  0  0  0  0  0  0  0  8  0  0
    1.2309    2.6032    0.0000 C   0  0  0  0  0  0  0  0  0  9  0  0
    0.4748    3.8987    0.0000 O   0  0  0  0  0  0  0  0  0 10  0  0
    2.7309    2.6102    0.0000 O   0  0  0  0  0  0  0  0  0 11  0  0
    2.9041   -2.3253    0.0000 H   0  0  0  0  0  0  0  0  0  0  0  0
    9.3017   -2.0060    0.0000 C   0  0  0  0  0  0  0  0  0  0  0  0
    7.9991   -1.2621    0.0000 C   0  0  0  0  0  0  0  0  0  0  0  0
    7.2552   -2.5647    0.0000 C   0  0  0  0  0  0  0  0  0  0  0  0
    5.7553   -2.5717    0.0000 C   0  0  0  0  0  0  0  0  0  0  0  0
    7.2430    0.0334    0.0000 O   0  0  0  0  0  0  0  0  0  0  0  0
    9.2946   -0.5060    0.0000 C   0  0  0  0  0  0  0  0  0  0  0  0
    5.7308    2.6244    0.0000 O   0  0  0  0  0  0  0  0  0  0  0  0
    4.9747    3.9198    0.0000 C   0  0  0  0  0  0  0  0  0  0  0  0
   -0.7130    1.2950    0.0000 H   0  0  0  0  0  0  0  0  0  0  0  0
    0.4992   -1.2974    0.0000 C   0  0  0  0  0  0  0  0  0  0  0  0
    1.2553   -2.5929    0.0000 C   0  0  0  0  0  0  0  0  0  0  0  0
    0.5114   -3.8955    0.0000 C   0  0  0  0  0  0  0  0  0  0  0  0
   -0.9886   -3.9025    0.0000 C   0  0  0  0  0  0  0  0  0  0  0  0
   -1.7447   -2.6070    0.0000 C   0  0  0  0  0  0  0  0  0  0  0  0
   -1.0008   -1.3045    0.0000 C   0  0  0  0  0  0  0  0  0  0  0  0
   -3.2446   -2.6141    0.0000 O   0  0  0  0  0  0  0  0  0  0  0  0
   -4.0007   -1.3186    0.0000 C   0  0  0  0  0  0  0  0  0  0  0  0
   -1.7324   -5.2051    0.0000 O   0  0  0  0  0  0  0  0  0  0  0  0
   -0.9763   -6.5006    0.0000 C   0  0  0  0  0  0  0  0  0  0  0  0
    1.2675   -5.1910    0.0000 O   0  0  0  0  0  0  0  0  0  0  0  0
  1  2  1  0  0  0  0
  1  6  2  0  0  0  0
  2  3  2  0  0  0  0
  3  4  1  0  0  0  0
  4  5  2  0  0  0  0
  5  6  1  0  0  0  0
  5 11  1  0  0  0  0
  6  7  1  0  0  0  0
  7  8  2  0  0  0  0
  8  9  1  0  0  0  0
  9 10  2  0  0  0  0
  9 11  1  0  0  0  0
  1 12  1  0  0  0  0
 13 14  1  0  0  0  0
 14 15  1  0  0  0  0
 14 17  1  0  0  0  0
 14 18  1  0  0  0  0
 15 16  2  0  0  0  0
  2 16  1  0  0  0  0
  3 17  1  0  0  0  0
 19 20  1  0  0  0  0
  4 19  1  0  0  0  0
  8 21  1  0  0  0  0
 22 23  1  0  0  0  0
 22 27  2  0  0  0  0
 23 24  2  0  0  0  0
 24 25  1  0  0  0  0
 24 32  1  0  0  0  0
 25 26  2  0  0  0  0
 25 30  1  0  0  0  0
 26 27  1  0  0  0  0
 26 28  1  0  0  0  0
 28 29  1  0  0  0  0
 30 31  1  0  0  0  0
  7 22  1  0  0  0  0
M  END
> <score_Kier1>
0.51772

$$$$
suggested molecule #518
 MOE2019            2D

 32 35  0  0  0  0  0  0  0  0999 V2000
    3.4992   -1.2833    0.0000 C   0  0  0  0  0  0  0  0  0  1  0  0
    4.9992   -1.2762    0.0000 C   0  0  0  0  0  0  0  0  0  2  0  0
    5.7430    0.0263    0.0000 C   0  0  0  0  0  0  0  0  0  3  0  0
    4.9869    1.3218    0.0000 C   0  0  0  0  0  0  0  0  0  4  0  0
    3.4870    1.3147    0.0000 C   0  0  0  0  0  0  0  0  0  5  0  0
    2.7431    0.0122    0.0000 C   0  0  0  0  0  0  0  0  0  6  0  0
    1.2431    0.0051    0.0000 C   0  0  0  0  0  0  0  0  0  7  0  0
    0.4870    1.3006    0.0000 C   0  0  0  0  0  0  0  0  0  8  0  0
    1.2309    2.6032    0.0000 C   0  0  0  0  0  0  0  0  0  9  0  0
    0.4748    3.8987    0.0000 O   0  0  0  0  0  0  0  0  0 10  0  0
    2.7309    2.6102    0.0000 O   0  0  0  0  0  0  0  0  0 11  0  0
    2.9041   -2.3253    0.0000 H   0  0  0  0  0  0  0  0  0  0  0  0
    9.3017   -2.0060    0.0000 C   0  0  0  0  0  0  0  0  0  0  0  0
    7.9991   -1.2621    0.0000 C   0  0  0  0  0  0  0  0  0  0  0  0
    7.2552   -2.5647    0.0000 C   0  0  0  0  0  0  0  0  0  0  0  0
    5.7553   -2.5717    0.0000 C   0  0  0  0  0  0  0  0  0  0  0  0
    7.2430    0.0334    0.0000 O   0  0  0  0  0  0  0  0  0  0  0  0
    9.2946   -0.5060    0.0000 C   0  0  0  0  0  0  0  0  0  0  0  0
    5.7308    2.6244    0.0000 O   0  0  0  0  0  0  0  0  0  0  0  0
    4.9747    3.9198    0.0000 C   0  0  0  0  0  0  0  0  0  0  0  0
   -0.7130    1.2950    0.0000 H   0  0  0  0  0  0  0  0  0  0  0  0
    0.4992   -1.2974    0.0000 C   0  0  0  0  0  0  0  0  0  0  0  0
    1.2553   -2.5929    0.0000 C   0  0  0  0  0  0  0  0  0  0  0  0
    0.5114   -3.8955    0.0000 C   0  0  0  0  0  0  0  0  0  0  0  0
   -0.9886   -3.9025    0.0000 C   0  0  0  0  0  0  0  0  0  0  0  0
   -1.7447   -2.6070    0.0000 C   0  0  0  0  0  0  0  0  0  0  0  0
   -1.0008   -1.3045    0.0000 C   0  0  0  0  0  0  0  0  0  0  0  0
   -3.2446   -2.6141    0.0000 O   0  0  0  0  0  0  0  0  0  0  0  0
   -4.0007   -1.3186    0.0000 C   0  0  0  0  0  0  0  0  0  0  0  0
   -1.7324   -5.2051    0.0000 O   0  0  0  0  0  0  0  0  0  0  0  0
   -0.9763   -6.5006    0.0000 C   0  0  0  0  0  0  0  0  0  0  0  0
    1.2675   -5.1910    0.0000 O   0  0  0  0  0  0  0  0  0  0  0  0
  1  2  1  0  0  0  0
  1  6  2  0  0  0  0
  2  3  2  0  0  0  0
  3  4  1  0  0  0  0
  4  5  2  0  0  0  0
  5  6  1  0  0  0  0
  5 11  1  0  0  0  0
  6  7  1  0  0  0  0
  7  8  2  0  0  0  0
  8  9  1  0  0  0  0
  9 10  2  0  0  0  0
  9 11  1  0  0  0  0
  1 12  1  0  0  0  0
 13 14  1  0  0  0  0
 14 15  1  0  0  0  0
 14 17  1  0  0  0  0
 14 18  1  0  0  0  0
 15 16  2  0  0  0  0
  2 16  1  0  0  0  0
  3 17  1  0  0  0  0
 19 20  1  0  0  0  0
  4 19  1  0  0  0  0
  8 21  1  0  0  0  0
 22 23  1  0  0  0  0
 22 27  2  0  0  0  0
 23 24  2  0  0  0  0
 24 25  1  0  0  0  0
 24 32  1  0  0  0  0
 25 26  2  0  0  0  0
 25 30  1  0  0  0  0
 26 27  1  0  0  0  0
 26 28  1  0  0  0  0
 28 29  1  0  0  0  0
 30 31  1  0  0  0  0
  7 22  1  0  0  0  0
M  END
> <score_Kier3>
0.511735

$$$$
suggested molecule #519
 MOE2019            2D

 32 35  0  0  0  0  0  0  0  0999 V2000
    3.4992   -1.2833    0.0000 C   0  0  0  0  0  0  0  0  0  1  0  0
    4.9992   -1.2762    0.0000 C   0  0  0  0  0  0  0  0  0  2  0  0
    5.7430    0.0263    0.0000 C   0  0  0  0  0  0  0  0  0  3  0  0
    4.9869    1.3218    0.0000 C   0  0  0  0  0  0  0  0  0  4  0  0
    3.4870    1.3147    0.0000 C   0  0  0  0  0  0  0  0  0  5  0  0
    2.7431    0.0122    0.0000 C   0  0  0  0  0  0  0  0  0  6  0  0
    1.2431    0.0051    0.0000 C   0  0  0  0  0  0  0  0  0  7  0  0
    0.4870    1.3006    0.0000 C   0  0  0  0  0  0  0  0  0  8  0  0
    1.2309    2.6032    0.0000 C   0  0  0  0  0  0  0  0  0  9  0  0
    0.4748    3.8987    0.0000 O   0  0  0  0  0  0  0  0  0 10  0  0
    2.7309    2.6102    0.0000 O   0  0  0  0  0  0  0  0  0 11  0  0
    2.9041   -2.3253    0.0000 H   0  0  0  0  0  0  0  0  0  0  0  0
    9.3017   -2.0060    0.0000 C   0  0  0  0  0  0  0  0  0  0  0  0
    7.9991   -1.2621    0.0000 C   0  0  0  0  0  0  0  0  0  0  0  0
    7.2552   -2.5647    0.0000 C   0  0  0  0  0  0  0  0  0  0  0  0
    5.7553   -2.5717    0.0000 C   0  0  0  0  0  0  0  0  0  0  0  0
    7.2430    0.0334    0.0000 O   0  0  0  0  0  0  0  0  0  0  0  0
    9.2946   -0.5060    0.0000 C   0  0  0  0  0  0  0  0  0  0  0  0
    5.7308    2.6244    0.0000 O   0  0  0  0  0  0  0  0  0  0  0  0
    4.9747    3.9198    0.0000 C   0  0  0  0  0  0  0  0  0  0  0  0
   -0.7130    1.2950    0.0000 H   0  0  0  0  0  0  0  0  0  0  0  0
    0.4992   -1.2974    0.0000 C   0  0  0  0  0  0  0  0  0  0  0  0
    1.2553   -2.5929    0.0000 C   0  0  0  0  0  0  0  0  0  0  0  0
    0.5114   -3.8955    0.0000 C   0  0  0  0  0  0  0  0  0  0  0  0
   -0.9886   -3.9025    0.0000 C   0  0  0  0  0  0  0  0  0  0  0  0
   -1.7447   -2.6070    0.0000 C   0  0  0  0  0  0  0  0  0  0  0  0
   -1.0008   -1.3045    0.0000 C   0  0  0  0  0  0  0  0  0  0  0  0
   -3.2446   -2.6141    0.0000 O   0  0  0  0  0  0  0  0  0  0  0  0
   -4.0007   -1.3186    0.0000 C   0  0  0  0  0  0  0  0  0  0  0  0
   -1.7324   -5.2051    0.0000 O   0  0  0  0  0  0  0  0  0  0  0  0
   -0.9763   -6.5006    0.0000 C   0  0  0  0  0  0  0  0  0  0  0  0
    1.2675   -5.1910    0.0000 O   0  0  0  0  0  0  0  0  0  0  0  0
  1  2  1  0  0  0  0
  1  6  2  0  0  0  0
  2  3  2  0  0  0  0
  3  4  1  0  0  0  0
  4  5  2  0  0  0  0
  5  6  1  0  0  0  0
  5 11  1  0  0  0  0
  6  7  1  0  0  0  0
  7  8  2  0  0  0  0
  8  9  1  0  0  0  0
  9 10  2  0  0  0  0
  9 11  1  0  0  0  0
  1 12  1  0  0  0  0
 13 14  1  0  0  0  0
 14 15  1  0  0  0  0
 14 17  1  0  0  0  0
 14 18  1  0  0  0  0
 15 16  2  0  0  0  0
  2 16  1  0  0  0  0
  3 17  1  0  0  0  0
 19 20  1  0  0  0  0
  4 19  1  0  0  0  0
  8 21  1  0  0  0  0
 22 23  1  0  0  0  0
 22 27  2  0  0  0  0
 23 24  2  0  0  0  0
 24 25  1  0  0  0  0
 24 32  1  0  0  0  0
 25 26  2  0  0  0  0
 25 30  1  0  0  0  0
 26 27  1  0  0  0  0
 26 28  1  0  0  0  0
 28 29  1  0  0  0  0
 30 31  1  0  0  0  0
  7 22  1  0  0  0  0
M  END
> <score_KierA1>
0.517767

$$$$
suggested molecule #520
 MOE2019            2D

 32 35  0  0  0  0  0  0  0  0999 V2000
    3.4992   -1.2833    0.0000 C   0  0  0  0  0  0  0  0  0  1  0  0
    4.9992   -1.2762    0.0000 C   0  0  0  0  0  0  0  0  0  2  0  0
    5.7430    0.0263    0.0000 C   0  0  0  0  0  0  0  0  0  3  0  0
    4.9869    1.3218    0.0000 C   0  0  0  0  0  0  0  0  0  4  0  0
    3.4870    1.3147    0.0000 C   0  0  0  0  0  0  0  0  0  5  0  0
    2.7431    0.0122    0.0000 C   0  0  0  0  0  0  0  0  0  6  0  0
    1.2431    0.0051    0.0000 C   0  0  0  0  0  0  0  0  0  7  0  0
    0.4870    1.3006    0.0000 C   0  0  0  0  0  0  0  0  0  8  0  0
    1.2309    2.6032    0.0000 C   0  0  0  0  0  0  0  0  0  9  0  0
    0.4748    3.8987    0.0000 O   0  0  0  0  0  0  0  0  0 10  0  0
    2.7309    2.6102    0.0000 O   0  0  0  0  0  0  0  0  0 11  0  0
    2.9041   -2.3253    0.0000 H   0  0  0  0  0  0  0  0  0  0  0  0
    9.3017   -2.0060    0.0000 C   0  0  0  0  0  0  0  0  0  0  0  0
    7.9991   -1.2621    0.0000 C   0  0  0  0  0  0  0  0  0  0  0  0
    7.2552   -2.5647    0.0000 C   0  0  0  0  0  0  0  0  0  0  0  0
    5.7553   -2.5717    0.0000 C   0  0  0  0  0  0  0  0  0  0  0  0
    7.2430    0.0334    0.0000 O   0  0  0  0  0  0  0  0  0  0  0  0
    9.2946   -0.5060    0.0000 C   0  0  0  0  0  0  0  0  0  0  0  0
    5.7308    2.6244    0.0000 O   0  0  0  0  0  0  0  0  0  0  0  0
    4.9747    3.9198    0.0000 C   0  0  0  0  0  0  0  0  0  0  0  0
   -0.7130    1.2950    0.0000 H   0  0  0  0  0  0  0  0  0  0  0  0
    0.4992   -1.2974    0.0000 C   0  0  0  0  0  0  0  0  0  0  0  0
    1.2553   -2.5929    0.0000 C   0  0  0  0  0  0  0  0  0  0  0  0
    0.5114   -3.8955    0.0000 C   0  0  0  0  0  0  0  0  0  0  0  0
   -0.9886   -3.9025    0.0000 C   0  0  0  0  0  0  0  0  0  0  0  0
   -1.7447   -2.6070    0.0000 C   0  0  0  0  0  0  0  0  0  0  0  0
   -1.0008   -1.3045    0.0000 C   0  0  0  0  0  0  0  0  0  0  0  0
   -3.2446   -2.6141    0.0000 O   0  0  0  0  0  0  0  0  0  0  0  0
   -4.0007   -1.3186    0.0000 C   0  0  0  0  0  0  0  0  0  0  0  0
   -1.7324   -5.2051    0.0000 O   0  0  0  0  0  0  0  0  0  0  0  0
   -0.9763   -6.5006    0.0000 C   0  0  0  0  0  0  0  0  0  0  0  0
    1.2675   -5.1910    0.0000 O   0  0  0  0  0  0  0  0  0  0  0  0
  1  2  1  0  0  0  0
  1  6  2  0  0  0  0
  2  3  2  0  0  0  0
  3  4  1  0  0  0  0
  4  5  2  0  0  0  0
  5  6  1  0  0  0  0
  5 11  1  0  0  0  0
  6  7  1  0  0  0  0
  7  8  2  0  0  0  0
  8  9  1  0  0  0  0
  9 10  2  0  0  0  0
  9 11  1  0  0  0  0
  1 12  1  0  0  0  0
 13 14  1  0  0  0  0
 14 15  1  0  0  0  0
 14 17  1  0  0  0  0
 14 18  1  0  0  0  0
 15 16  2  0  0  0  0
  2 16  1  0  0  0  0
  3 17  1  0  0  0  0
 19 20  1  0  0  0  0
  4 19  1  0  0  0  0
  8 21  1  0  0  0  0
 22 23  1  0  0  0  0
 22 27  2  0  0  0  0
 23 24  2  0  0  0  0
 24 25  1  0  0  0  0
 24 32  1  0  0  0  0
 25 26  2  0  0  0  0
 25 30  1  0  0  0  0
 26 27  1  0  0  0  0
 26 28  1  0  0  0  0
 28 29  1  0  0  0  0
 30 31  1  0  0  0  0
  7 22  1  0  0  0  0
M  END
> <score_KierA2>
0.516824

$$$$
suggested molecule #521
 MOE2019            2D

 32 35  0  0  0  0  0  0  0  0999 V2000
    3.4992   -1.2833    0.0000 C   0  0  0  0  0  0  0  0  0  1  0  0
    4.9992   -1.2762    0.0000 C   0  0  0  0  0  0  0  0  0  2  0  0
    5.7430    0.0263    0.0000 C   0  0  0  0  0  0  0  0  0  3  0  0
    4.9869    1.3218    0.0000 C   0  0  0  0  0  0  0  0  0  4  0  0
    3.4870    1.3147    0.0000 C   0  0  0  0  0  0  0  0  0  5  0  0
    2.7431    0.0122    0.0000 C   0  0  0  0  0  0  0  0  0  6  0  0
    1.2431    0.0051    0.0000 C   0  0  0  0  0  0  0  0  0  7  0  0
    0.4870    1.3006    0.0000 C   0  0  0  0  0  0  0  0  0  8  0  0
    1.2309    2.6032    0.0000 C   0  0  0  0  0  0  0  0  0  9  0  0
    0.4748    3.8987    0.0000 O   0  0  0  0  0  0  0  0  0 10  0  0
    2.7309    2.6102    0.0000 O   0  0  0  0  0  0  0  0  0 11  0  0
    2.9041   -2.3253    0.0000 H   0  0  0  0  0  0  0  0  0  0  0  0
    9.3017   -2.0060    0.0000 C   0  0  0  0  0  0  0  0  0  0  0  0
    7.9991   -1.2621    0.0000 C   0  0  0  0  0  0  0  0  0  0  0  0
    7.2552   -2.5647    0.0000 C   0  0  0  0  0  0  0  0  0  0  0  0
    5.7553   -2.5717    0.0000 C   0  0  0  0  0  0  0  0  0  0  0  0
    7.2430    0.0334    0.0000 O   0  0  0  0  0  0  0  0  0  0  0  0
    9.2946   -0.5060    0.0000 C   0  0  0  0  0  0  0  0  0  0  0  0
    5.7308    2.6244    0.0000 O   0  0  0  0  0  0  0  0  0  0  0  0
    4.9747    3.9198    0.0000 C   0  0  0  0  0  0  0  0  0  0  0  0
   -0.7130    1.2950    0.0000 H   0  0  0  0  0  0  0  0  0  0  0  0
    0.4992   -1.2974    0.0000 C   0  0  0  0  0  0  0  0  0  0  0  0
    1.2553   -2.5929    0.0000 C   0  0  0  0  0  0  0  0  0  0  0  0
    0.5114   -3.8955    0.0000 C   0  0  0  0  0  0  0  0  0  0  0  0
   -0.9886   -3.9025    0.0000 C   0  0  0  0  0  0  0  0  0  0  0  0
   -1.7447   -2.6070    0.0000 C   0  0  0  0  0  0  0  0  0  0  0  0
   -1.0008   -1.3045    0.0000 C   0  0  0  0  0  0  0  0  0  0  0  0
   -3.2446   -2.6141    0.0000 O   0  0  0  0  0  0  0  0  0  0  0  0
   -4.0007   -1.3186    0.0000 C   0  0  0  0  0  0  0  0  0  0  0  0
   -1.7324   -5.2051    0.0000 O   0  0  0  0  0  0  0  0  0  0  0  0
   -0.9763   -6.5006    0.0000 C   0  0  0  0  0  0  0  0  0  0  0  0
    1.2675   -5.1910    0.0000 O   0  0  0  0  0  0  0  0  0  0  0  0
  1  2  1  0  0  0  0
  1  6  2  0  0  0  0
  2  3  2  0  0  0  0
  3  4  1  0  0  0  0
  4  5  2  0  0  0  0
  5  6  1  0  0  0  0
  5 11  1  0  0  0  0
  6  7  1  0  0  0  0
  7  8  2  0  0  0  0
  8  9  1  0  0  0  0
  9 10  2  0  0  0  0
  9 11  1  0  0  0  0
  1 12  1  0  0  0  0
 13 14  1  0  0  0  0
 14 15  1  0  0  0  0
 14 17  1  0  0  0  0
 14 18  1  0  0  0  0
 15 16  2  0  0  0  0
  2 16  1  0  0  0  0
  3 17  1  0  0  0  0
 19 20  1  0  0  0  0
  4 19  1  0  0  0  0
  8 21  1  0  0  0  0
 22 23  1  0  0  0  0
 22 27  2  0  0  0  0
 23 24  2  0  0  0  0
 24 25  1  0  0  0  0
 24 32  1  0  0  0  0
 25 26  2  0  0  0  0
 25 30  1  0  0  0  0
 26 27  1  0  0  0  0
 26 28  1  0  0  0  0
 28 29  1  0  0  0  0
 30 31  1  0  0  0  0
  7 22  1  0  0  0  0
M  END
> <score_KierA3>
0.51245

$$$$
suggested molecule #522
 MOE2019            2D

 32 35  0  0  0  0  0  0  0  0999 V2000
    3.4992   -1.2833    0.0000 C   0  0  0  0  0  0  0  0  0  1  0  0
    4.9992   -1.2762    0.0000 C   0  0  0  0  0  0  0  0  0  2  0  0
    5.7430    0.0263    0.0000 C   0  0  0  0  0  0  0  0  0  3  0  0
    4.9869    1.3218    0.0000 C   0  0  0  0  0  0  0  0  0  4  0  0
    3.4870    1.3147    0.0000 C   0  0  0  0  0  0  0  0  0  5  0  0
    2.7431    0.0122    0.0000 C   0  0  0  0  0  0  0  0  0  6  0  0
    1.2431    0.0051    0.0000 C   0  0  0  0  0  0  0  0  0  7  0  0
    0.4870    1.3006    0.0000 C   0  0  0  0  0  0  0  0  0  8  0  0
    1.2309    2.6032    0.0000 C   0  0  0  0  0  0  0  0  0  9  0  0
    0.4748    3.8987    0.0000 O   0  0  0  0  0  0  0  0  0 10  0  0
    2.7309    2.6102    0.0000 O   0  0  0  0  0  0  0  0  0 11  0  0
    2.9041   -2.3253    0.0000 H   0  0  0  0  0  0  0  0  0  0  0  0
    9.3017   -2.0060    0.0000 C   0  0  0  0  0  0  0  0  0  0  0  0
    7.9991   -1.2621    0.0000 C   0  0  0  0  0  0  0  0  0  0  0  0
    7.2552   -2.5647    0.0000 C   0  0  0  0  0  0  0  0  0  0  0  0
    5.7553   -2.5717    0.0000 C   0  0  0  0  0  0  0  0  0  0  0  0
    7.2430    0.0334    0.0000 O   0  0  0  0  0  0  0  0  0  0  0  0
    9.2946   -0.5060    0.0000 C   0  0  0  0  0  0  0  0  0  0  0  0
    5.7308    2.6244    0.0000 O   0  0  0  0  0  0  0  0  0  0  0  0
    4.9747    3.9198    0.0000 C   0  0  0  0  0  0  0  0  0  0  0  0
   -0.7130    1.2950    0.0000 H   0  0  0  0  0  0  0  0  0  0  0  0
    0.4992   -1.2974    0.0000 C   0  0  0  0  0  0  0  0  0  0  0  0
    1.2553   -2.5929    0.0000 C   0  0  0  0  0  0  0  0  0  0  0  0
    0.5114   -3.8955    0.0000 C   0  0  0  0  0  0  0  0  0  0  0  0
   -0.9886   -3.9025    0.0000 C   0  0  0  0  0  0  0  0  0  0  0  0
   -1.7447   -2.6070    0.0000 C   0  0  0  0  0  0  0  0  0  0  0  0
   -1.0008   -1.3045    0.0000 C   0  0  0  0  0  0  0  0  0  0  0  0
   -3.2446   -2.6141    0.0000 O   0  0  0  0  0  0  0  0  0  0  0  0
   -4.0007   -1.3186    0.0000 C   0  0  0  0  0  0  0  0  0  0  0  0
   -1.7324   -5.2051    0.0000 O   0  0  0  0  0  0  0  0  0  0  0  0
   -0.9763   -6.5006    0.0000 C   0  0  0  0  0  0  0  0  0  0  0  0
    1.2675   -5.1910    0.0000 O   0  0  0  0  0  0  0  0  0  0  0  0
  1  2  1  0  0  0  0
  1  6  2  0  0  0  0
  2  3  2  0  0  0  0
  3  4  1  0  0  0  0
  4  5  2  0  0  0  0
  5  6  1  0  0  0  0
  5 11  1  0  0  0  0
  6  7  1  0  0  0  0
  7  8  2  0  0  0  0
  8  9  1  0  0  0  0
  9 10  2  0  0  0  0
  9 11  1  0  0  0  0
  1 12  1  0  0  0  0
 13 14  1  0  0  0  0
 14 15  1  0  0  0  0
 14 17  1  0  0  0  0
 14 18  1  0  0  0  0
 15 16  2  0  0  0  0
  2 16  1  0  0  0  0
  3 17  1  0  0  0  0
 19 20  1  0  0  0  0
  4 19  1  0  0  0  0
  8 21  1  0  0  0  0
 22 23  1  0  0  0  0
 22 27  2  0  0  0  0
 23 24  2  0  0  0  0
 24 25  1  0  0  0  0
 24 32  1  0  0  0  0
 25 26  2  0  0  0  0
 25 30  1  0  0  0  0
 26 27  1  0  0  0  0
 26 28  1  0  0  0  0
 28 29  1  0  0  0  0
 30 31  1  0  0  0  0
  7 22  1  0  0  0  0
M  END
> <score_KierFlex>
0.516576

$$$$
suggested molecule #523
 MOE2019            2D

 22 24  0  0  0  0  0  0  0  0999 V2000
    3.4992   -1.2833    0.0000 C   0  0  0  0  0  0  0  0  0  1  0  0
    4.9992   -1.2762    0.0000 C   0  0  0  0  0  0  0  0  0  2  0  0
    5.7430    0.0263    0.0000 C   0  0  0  0  0  0  0  0  0  3  0  0
    4.9869    1.3218    0.0000 C   0  0  0  0  0  0  0  0  0  4  0  0
    3.4870    1.3147    0.0000 C   0  0  0  0  0  0  0  0  0  5  0  0
    2.7431    0.0122    0.0000 C   0  0  0  0  0  0  0  0  0  6  0  0
    1.2431    0.0051    0.0000 C   0  0  0  0  0  0  0  0  0  7  0  0
    0.4870    1.3006    0.0000 C   0  0  0  0  0  0  0  0  0  8  0  0
    1.2309    2.6032    0.0000 C   0  0  0  0  0  0  0  0  0  9  0  0
    0.4748    3.8987    0.0000 O   0  0  0  0  0  0  0  0  0 10  0  0
    2.7309    2.6102    0.0000 O   0  0  0  0  0  0  0  0  0 11  0  0
    2.9041   -2.3253    0.0000 H   0  0  0  0  0  0  0  0  0  0  0  0
    9.3017   -2.0060    0.0000 C   0  0  0  0  0  0  0  0  0  0  0  0
    7.9991   -1.2621    0.0000 C   0  0  0  0  0  0  0  0  0  0  0  0
    7.2552   -2.5647    0.0000 C   0  0  0  0  0  0  0  0  0  0  0  0
    5.7553   -2.5717    0.0000 C   0  0  0  0  0  0  0  0  0  0  0  0
    7.2430    0.0334    0.0000 O   0  0  0  0  0  0  0  0  0  0  0  0
    9.2946   -0.5060    0.0000 C   0  0  0  0  0  0  0  0  0  0  0  0
    5.7308    2.6244    0.0000 O   0  0  0  0  0  0  0  0  0  0  0  0
    4.9747    3.9198    0.0000 C   0  0  0  0  0  0  0  0  0  0  0  0
   -0.7130    1.2950    0.0000 H   0  0  0  0  0  0  0  0  0  0  0  0
    0.4992   -1.2974    0.0000 O   0  0  0  0  0  0  0  0  0  0  0  0
  1  2  1  0  0  0  0
  1  6  2  0  0  0  0
  2  3  2  0  0  0  0
  3  4  1  0  0  0  0
  4  5  2  0  0  0  0
  5  6  1  0  0  0  0
  5 11  1  0  0  0  0
  6  7  1  0  0  0  0
  7  8  2  0  0  0  0
  8  9  1  0  0  0  0
  9 10  2  0  0  0  0
  9 11  1  0  0  0  0
  1 12  1  0  0  0  0
 13 14  1  0  0  0  0
 14 15  1  0  0  0  0
 14 17  1  0  0  0  0
 14 18  1  0  0  0  0
 15 16  2  0  0  0  0
  2 16  1  0  0  0  0
  3 17  1  0  0  0  0
 19 20  1  0  0  0  0
  4 19  1  0  0  0  0
  8 21  1  0  0  0  0
  7 22  1  0  0  0  0
M  END
> <score_Kier1>
0.517723

$$$$
suggested molecule #524
 MOE2019            2D

 22 24  0  0  0  0  0  0  0  0999 V2000
    3.4992   -1.2833    0.0000 C   0  0  0  0  0  0  0  0  0  1  0  0
    4.9992   -1.2762    0.0000 C   0  0  0  0  0  0  0  0  0  2  0  0
    5.7430    0.0263    0.0000 C   0  0  0  0  0  0  0  0  0  3  0  0
    4.9869    1.3218    0.0000 C   0  0  0  0  0  0  0  0  0  4  0  0
    3.4870    1.3147    0.0000 C   0  0  0  0  0  0  0  0  0  5  0  0
    2.7431    0.0122    0.0000 C   0  0  0  0  0  0  0  0  0  6  0  0
    1.2431    0.0051    0.0000 C   0  0  0  0  0  0  0  0  0  7  0  0
    0.4870    1.3006    0.0000 C   0  0  0  0  0  0  0  0  0  8  0  0
    1.2309    2.6032    0.0000 C   0  0  0  0  0  0  0  0  0  9  0  0
    0.4748    3.8987    0.0000 O   0  0  0  0  0  0  0  0  0 10  0  0
    2.7309    2.6102    0.0000 O   0  0  0  0  0  0  0  0  0 11  0  0
    2.9041   -2.3253    0.0000 H   0  0  0  0  0  0  0  0  0  0  0  0
    9.3017   -2.0060    0.0000 C   0  0  0  0  0  0  0  0  0  0  0  0
    7.9991   -1.2621    0.0000 C   0  0  0  0  0  0  0  0  0  0  0  0
    7.2552   -2.5647    0.0000 C   0  0  0  0  0  0  0  0  0  0  0  0
    5.7553   -2.5717    0.0000 C   0  0  0  0  0  0  0  0  0  0  0  0
    7.2430    0.0334    0.0000 O   0  0  0  0  0  0  0  0  0  0  0  0
    9.2946   -0.5060    0.0000 C   0  0  0  0  0  0  0  0  0  0  0  0
    5.7308    2.6244    0.0000 O   0  0  0  0  0  0  0  0  0  0  0  0
    4.9747    3.9198    0.0000 C   0  0  0  0  0  0  0  0  0  0  0  0
   -0.7130    1.2950    0.0000 H   0  0  0  0  0  0  0  0  0  0  0  0
    0.4992   -1.2974    0.0000 O   0  0  0  0  0  0  0  0  0  0  0  0
  1  2  1  0  0  0  0
  1  6  2  0  0  0  0
  2  3  2  0  0  0  0
  3  4  1  0  0  0  0
  4  5  2  0  0  0  0
  5  6  1  0  0  0  0
  5 11  1  0  0  0  0
  6  7  1  0  0  0  0
  7  8  2  0  0  0  0
  8  9  1  0  0  0  0
  9 10  2  0  0  0  0
  9 11  1  0  0  0  0
  1 12  1  0  0  0  0
 13 14  1  0  0  0  0
 14 15  1  0  0  0  0
 14 17  1  0  0  0  0
 14 18  1  0  0  0  0
 15 16  2  0  0  0  0
  2 16  1  0  0  0  0
  3 17  1  0  0  0  0
 19 20  1  0  0  0  0
  4 19  1  0  0  0  0
  8 21  1  0  0  0  0
  7 22  1  0  0  0  0
M  END
> <score_Kier3>
0.511739

$$$$
suggested molecule #525
 MOE2019            2D

 22 24  0  0  0  0  0  0  0  0999 V2000
    3.4992   -1.2833    0.0000 C   0  0  0  0  0  0  0  0  0  1  0  0
    4.9992   -1.2762    0.0000 C   0  0  0  0  0  0  0  0  0  2  0  0
    5.7430    0.0263    0.0000 C   0  0  0  0  0  0  0  0  0  3  0  0
    4.9869    1.3218    0.0000 C   0  0  0  0  0  0  0  0  0  4  0  0
    3.4870    1.3147    0.0000 C   0  0  0  0  0  0  0  0  0  5  0  0
    2.7431    0.0122    0.0000 C   0  0  0  0  0  0  0  0  0  6  0  0
    1.2431    0.0051    0.0000 C   0  0  0  0  0  0  0  0  0  7  0  0
    0.4870    1.3006    0.0000 C   0  0  0  0  0  0  0  0  0  8  0  0
    1.2309    2.6032    0.0000 C   0  0  0  0  0  0  0  0  0  9  0  0
    0.4748    3.8987    0.0000 O   0  0  0  0  0  0  0  0  0 10  0  0
    2.7309    2.6102    0.0000 O   0  0  0  0  0  0  0  0  0 11  0  0
    2.9041   -2.3253    0.0000 H   0  0  0  0  0  0  0  0  0  0  0  0
    9.3017   -2.0060    0.0000 C   0  0  0  0  0  0  0  0  0  0  0  0
    7.9991   -1.2621    0.0000 C   0  0  0  0  0  0  0  0  0  0  0  0
    7.2552   -2.5647    0.0000 C   0  0  0  0  0  0  0  0  0  0  0  0
    5.7553   -2.5717    0.0000 C   0  0  0  0  0  0  0  0  0  0  0  0
    7.2430    0.0334    0.0000 O   0  0  0  0  0  0  0  0  0  0  0  0
    9.2946   -0.5060    0.0000 C   0  0  0  0  0  0  0  0  0  0  0  0
    5.7308    2.6244    0.0000 O   0  0  0  0  0  0  0  0  0  0  0  0
    4.9747    3.9198    0.0000 C   0  0  0  0  0  0  0  0  0  0  0  0
   -0.7130    1.2950    0.0000 H   0  0  0  0  0  0  0  0  0  0  0  0
    0.4992   -1.2974    0.0000 O   0  0  0  0  0  0  0  0  0  0  0  0
  1  2  1  0  0  0  0
  1  6  2  0  0  0  0
  2  3  2  0  0  0  0
  3  4  1  0  0  0  0
  4  5  2  0  0  0  0
  5  6  1  0  0  0  0
  5 11  1  0  0  0  0
  6  7  1  0  0  0  0
  7  8  2  0  0  0  0
  8  9  1  0  0  0  0
  9 10  2  0  0  0  0
  9 11  1  0  0  0  0
  1 12  1  0  0  0  0
 13 14  1  0  0  0  0
 14 15  1  0  0  0  0
 14 17  1  0  0  0  0
 14 18  1  0  0  0  0
 15 16  2  0  0  0  0
  2 16  1  0  0  0  0
  3 17  1  0  0  0  0
 19 20  1  0  0  0  0
  4 19  1  0  0  0  0
  8 21  1  0  0  0  0
  7 22  1  0  0  0  0
M  END
> <score_KierA1>
0.517772

$$$$
suggested molecule #526
 MOE2019            2D

 22 24  0  0  0  0  0  0  0  0999 V2000
    3.4992   -1.2833    0.0000 C   0  0  0  0  0  0  0  0  0  1  0  0
    4.9992   -1.2762    0.0000 C   0  0  0  0  0  0  0  0  0  2  0  0
    5.7430    0.0263    0.0000 C   0  0  0  0  0  0  0  0  0  3  0  0
    4.9869    1.3218    0.0000 C   0  0  0  0  0  0  0  0  0  4  0  0
    3.4870    1.3147    0.0000 C   0  0  0  0  0  0  0  0  0  5  0  0
    2.7431    0.0122    0.0000 C   0  0  0  0  0  0  0  0  0  6  0  0
    1.2431    0.0051    0.0000 C   0  0  0  0  0  0  0  0  0  7  0  0
    0.4870    1.3006    0.0000 C   0  0  0  0  0  0  0  0  0  8  0  0
    1.2309    2.6032    0.0000 C   0  0  0  0  0  0  0  0  0  9  0  0
    0.4748    3.8987    0.0000 O   0  0  0  0  0  0  0  0  0 10  0  0
    2.7309    2.6102    0.0000 O   0  0  0  0  0  0  0  0  0 11  0  0
    2.9041   -2.3253    0.0000 H   0  0  0  0  0  0  0  0  0  0  0  0
    9.3017   -2.0060    0.0000 C   0  0  0  0  0  0  0  0  0  0  0  0
    7.9991   -1.2621    0.0000 C   0  0  0  0  0  0  0  0  0  0  0  0
    7.2552   -2.5647    0.0000 C   0  0  0  0  0  0  0  0  0  0  0  0
    5.7553   -2.5717    0.0000 C   0  0  0  0  0  0  0  0  0  0  0  0
    7.2430    0.0334    0.0000 O   0  0  0  0  0  0  0  0  0  0  0  0
    9.2946   -0.5060    0.0000 C   0  0  0  0  0  0  0  0  0  0  0  0
    5.7308    2.6244    0.0000 O   0  0  0  0  0  0  0  0  0  0  0  0
    4.9747    3.9198    0.0000 C   0  0  0  0  0  0  0  0  0  0  0  0
   -0.7130    1.2950    0.0000 H   0  0  0  0  0  0  0  0  0  0  0  0
    0.4992   -1.2974    0.0000 O   0  0  0  0  0  0  0  0  0  0  0  0
  1  2  1  0  0  0  0
  1  6  2  0  0  0  0
  2  3  2  0  0  0  0
  3  4  1  0  0  0  0
  4  5  2  0  0  0  0
  5  6  1  0  0  0  0
  5 11  1  0  0  0  0
  6  7  1  0  0  0  0
  7  8  2  0  0  0  0
  8  9  1  0  0  0  0
  9 10  2  0  0  0  0
  9 11  1  0  0  0  0
  1 12  1  0  0  0  0
 13 14  1  0  0  0  0
 14 15  1  0  0  0  0
 14 17  1  0  0  0  0
 14 18  1  0  0  0  0
 15 16  2  0  0  0  0
  2 16  1  0  0  0  0
  3 17  1  0  0  0  0
 19 20  1  0  0  0  0
  4 19  1  0  0  0  0
  8 21  1  0  0  0  0
  7 22  1  0  0  0  0
M  END
> <score_KierA2>
0.516838

$$$$
suggested molecule #527
 MOE2019            2D

 22 24  0  0  0  0  0  0  0  0999 V2000
    3.4992   -1.2833    0.0000 C   0  0  0  0  0  0  0  0  0  1  0  0
    4.9992   -1.2762    0.0000 C   0  0  0  0  0  0  0  0  0  2  0  0
    5.7430    0.0263    0.0000 C   0  0  0  0  0  0  0  0  0  3  0  0
    4.9869    1.3218    0.0000 C   0  0  0  0  0  0  0  0  0  4  0  0
    3.4870    1.3147    0.0000 C   0  0  0  0  0  0  0  0  0  5  0  0
    2.7431    0.0122    0.0000 C   0  0  0  0  0  0  0  0  0  6  0  0
    1.2431    0.0051    0.0000 C   0  0  0  0  0  0  0  0  0  7  0  0
    0.4870    1.3006    0.0000 C   0  0  0  0  0  0  0  0  0  8  0  0
    1.2309    2.6032    0.0000 C   0  0  0  0  0  0  0  0  0  9  0  0
    0.4748    3.8987    0.0000 O   0  0  0  0  0  0  0  0  0 10  0  0
    2.7309    2.6102    0.0000 O   0  0  0  0  0  0  0  0  0 11  0  0
    2.9041   -2.3253    0.0000 H   0  0  0  0  0  0  0  0  0  0  0  0
    9.3017   -2.0060    0.0000 C   0  0  0  0  0  0  0  0  0  0  0  0
    7.9991   -1.2621    0.0000 C   0  0  0  0  0  0  0  0  0  0  0  0
    7.2552   -2.5647    0.0000 C   0  0  0  0  0  0  0  0  0  0  0  0
    5.7553   -2.5717    0.0000 C   0  0  0  0  0  0  0  0  0  0  0  0
    7.2430    0.0334    0.0000 O   0  0  0  0  0  0  0  0  0  0  0  0
    9.2946   -0.5060    0.0000 C   0  0  0  0  0  0  0  0  0  0  0  0
    5.7308    2.6244    0.0000 O   0  0  0  0  0  0  0  0  0  0  0  0
    4.9747    3.9198    0.0000 C   0  0  0  0  0  0  0  0  0  0  0  0
   -0.7130    1.2950    0.0000 H   0  0  0  0  0  0  0  0  0  0  0  0
    0.4992   -1.2974    0.0000 O   0  0  0  0  0  0  0  0  0  0  0  0
  1  2  1  0  0  0  0
  1  6  2  0  0  0  0
  2  3  2  0  0  0  0
  3  4  1  0  0  0  0
  4  5  2  0  0  0  0
  5  6  1  0  0  0  0
  5 11  1  0  0  0  0
  6  7  1  0  0  0  0
  7  8  2  0  0  0  0
  8  9  1  0  0  0  0
  9 10  2  0  0  0  0
  9 11  1  0  0  0  0
  1 12  1  0  0  0  0
 13 14  1  0  0  0  0
 14 15  1  0  0  0  0
 14 17  1  0  0  0  0
 14 18  1  0  0  0  0
 15 16  2  0  0  0  0
  2 16  1  0  0  0  0
  3 17  1  0  0  0  0
 19 20  1  0  0  0  0
  4 19  1  0  0  0  0
  8 21  1  0  0  0  0
  7 22  1  0  0  0  0
M  END
> <score_KierA3>
0.512456

$$$$
suggested molecule #528
 MOE2019            2D

 22 24  0  0  0  0  0  0  0  0999 V2000
    3.4992   -1.2833    0.0000 C   0  0  0  0  0  0  0  0  0  1  0  0
    4.9992   -1.2762    0.0000 C   0  0  0  0  0  0  0  0  0  2  0  0
    5.7430    0.0263    0.0000 C   0  0  0  0  0  0  0  0  0  3  0  0
    4.9869    1.3218    0.0000 C   0  0  0  0  0  0  0  0  0  4  0  0
    3.4870    1.3147    0.0000 C   0  0  0  0  0  0  0  0  0  5  0  0
    2.7431    0.0122    0.0000 C   0  0  0  0  0  0  0  0  0  6  0  0
    1.2431    0.0051    0.0000 C   0  0  0  0  0  0  0  0  0  7  0  0
    0.4870    1.3006    0.0000 C   0  0  0  0  0  0  0  0  0  8  0  0
    1.2309    2.6032    0.0000 C   0  0  0  0  0  0  0  0  0  9  0  0
    0.4748    3.8987    0.0000 O   0  0  0  0  0  0  0  0  0 10  0  0
    2.7309    2.6102    0.0000 O   0  0  0  0  0  0  0  0  0 11  0  0
    2.9041   -2.3253    0.0000 H   0  0  0  0  0  0  0  0  0  0  0  0
    9.3017   -2.0060    0.0000 C   0  0  0  0  0  0  0  0  0  0  0  0
    7.9991   -1.2621    0.0000 C   0  0  0  0  0  0  0  0  0  0  0  0
    7.2552   -2.5647    0.0000 C   0  0  0  0  0  0  0  0  0  0  0  0
    5.7553   -2.5717    0.0000 C   0  0  0  0  0  0  0  0  0  0  0  0
    7.2430    0.0334    0.0000 O   0  0  0  0  0  0  0  0  0  0  0  0
    9.2946   -0.5060    0.0000 C   0  0  0  0  0  0  0  0  0  0  0  0
    5.7308    2.6244    0.0000 O   0  0  0  0  0  0  0  0  0  0  0  0
    4.9747    3.9198    0.0000 C   0  0  0  0  0  0  0  0  0  0  0  0
   -0.7130    1.2950    0.0000 H   0  0  0  0  0  0  0  0  0  0  0  0
    0.4992   -1.2974    0.0000 O   0  0  0  0  0  0  0  0  0  0  0  0
  1  2  1  0  0  0  0
  1  6  2  0  0  0  0
  2  3  2  0  0  0  0
  3  4  1  0  0  0  0
  4  5  2  0  0  0  0
  5  6  1  0  0  0  0
  5 11  1  0  0  0  0
  6  7  1  0  0  0  0
  7  8  2  0  0  0  0
  8  9  1  0  0  0  0
  9 10  2  0  0  0  0
  9 11  1  0  0  0  0
  1 12  1  0  0  0  0
 13 14  1  0  0  0  0
 14 15  1  0  0  0  0
 14 17  1  0  0  0  0
 14 18  1  0  0  0  0
 15 16  2  0  0  0  0
  2 16  1  0  0  0  0
  3 17  1  0  0  0  0
 19 20  1  0  0  0  0
  4 19  1  0  0  0  0
  8 21  1  0  0  0  0
  7 22  1  0  0  0  0
M  END
> <score_KierFlex>
0.516597

$$$$
suggested molecule #529
 MOE2019            2D

 33 36  0  0  0  0  0  0  0  0999 V2000
    3.4992   -1.2833    0.0000 C   0  0  0  0  0  0  0  0  0  1  0  0
    4.9992   -1.2762    0.0000 C   0  0  0  0  0  0  0  0  0  2  0  0
    5.7430    0.0263    0.0000 C   0  0  0  0  0  0  0  0  0  3  0  0
    4.9869    1.3218    0.0000 C   0  0  0  0  0  0  0  0  0  4  0  0
    3.4870    1.3147    0.0000 C   0  0  0  0  0  0  0  0  0  5  0  0
    2.7431    0.0122    0.0000 C   0  0  0  0  0  0  0  0  0  6  0  0
    1.2431    0.0051    0.0000 C   0  0  0  0  0  0  0  0  0  7  0  0
    0.4870    1.3006    0.0000 C   0  0  0  0  0  0  0  0  0  8  0  0
    1.2309    2.6032    0.0000 C   0  0  0  0  0  0  0  0  0  9  0  0
    0.4748    3.8987    0.0000 O   0  0  0  0  0  0  0  0  0 10  0  0
    2.7309    2.6102    0.0000 O   0  0  0  0  0  0  0  0  0 11  0  0
    2.9041   -2.3253    0.0000 H   0  0  0  0  0  0  0  0  0  0  0  0
    9.3017   -2.0060    0.0000 C   0  0  0  0  0  0  0  0  0  0  0  0
    7.9991   -1.2621    0.0000 C   0  0  0  0  0  0  0  0  0  0  0  0
    7.2552   -2.5647    0.0000 C   0  0  0  0  0  0  0  0  0  0  0  0
    5.7553   -2.5717    0.0000 C   0  0  0  0  0  0  0  0  0  0  0  0
    7.2430    0.0334    0.0000 O   0  0  0  0  0  0  0  0  0  0  0  0
    9.2946   -0.5060    0.0000 C   0  0  0  0  0  0  0  0  0  0  0  0
    5.7308    2.6244    0.0000 O   0  0  0  0  0  0  0  0  0  0  0  0
    4.9747    3.9198    0.0000 C   0  0  0  0  0  0  0  0  0  0  0  0
   -0.7130    1.2950    0.0000 H   0  0  0  0  0  0  0  0  0  0  0  0
   -0.9886   -3.9025    0.0000 C   0  0  0  0  0  0  0  0  0  0  0  0
   -1.7324   -5.2051    0.0000 C   0  0  0  0  0  0  0  0  0  0  0  0
   -3.2324   -5.2121    0.0000 C   0  0  0  0  0  0  0  0  0  0  0  0
   -3.9885   -3.9166    0.0000 C   0  0  0  0  0  0  0  0  0  0  0  0
   -3.2446   -2.6141    0.0000 C   0  0  0  0  0  0  0  0  0  0  0  0
   -1.7447   -2.6070    0.0000 C   0  0  0  0  0  0  0  0  0  0  0  0
   -1.0008   -1.3045    0.0000 O   0  0  0  0  0  0  0  0  0  0  0  0
    0.4992   -1.2974    0.0000 C   0  0  0  0  0  0  0  0  0  0  0  0
   -5.4885   -3.9237    0.0000 O   0  0  0  0  0  0  0  0  0  0  0  0
   -6.2446   -2.6282    0.0000 C   0  0  0  0  0  0  0  0  0  0  0  0
   -3.9763   -6.5147    0.0000 O   0  0  0  0  0  0  0  0  0  0  0  0
   -3.2202   -7.8102    0.0000 C   0  0  0  0  0  0  0  0  0  0  0  0
  1  2  1  0  0  0  0
  1  6  2  0  0  0  0
  2  3  2  0  0  0  0
  3  4  1  0  0  0  0
  4  5  2  0  0  0  0
  5  6  1  0  0  0  0
  5 11  1  0  0  0  0
  6  7  1  0  0  0  0
  7  8  2  0  0  0  0
  8  9  1  0  0  0  0
  9 10  2  0  0  0  0
  9 11  1  0  0  0  0
  1 12  1  0  0  0  0
 13 14  1  0  0  0  0
 14 15  1  0  0  0  0
 14 17  1  0  0  0  0
 14 18  1  0  0  0  0
 15 16  2  0  0  0  0
  2 16  1  0  0  0  0
  3 17  1  0  0  0  0
 19 20  1  0  0  0  0
  4 19  1  0  0  0  0
  8 21  1  0  0  0  0
 22 23  1  0  0  0  0
 22 27  2  0  0  0  0
 23 24  2  0  0  0  0
 24 25  1  0  0  0  0
 24 32  1  0  0  0  0
 25 26  2  0  0  0  0
 25 30  1  0  0  0  0
 26 27  1  0  0  0  0
 27 28  1  0  0  0  0
 28 29  1  0  0  0  0
 30 31  1  0  0  0  0
 32 33  1  0  0  0  0
  7 29  1  0  0  0  0
M  END
> <score_Kier1>
0.517725

$$$$
suggested molecule #530
 MOE2019            2D

 33 36  0  0  0  0  0  0  0  0999 V2000
    3.4992   -1.2833    0.0000 C   0  0  0  0  0  0  0  0  0  1  0  0
    4.9992   -1.2762    0.0000 C   0  0  0  0  0  0  0  0  0  2  0  0
    5.7430    0.0263    0.0000 C   0  0  0  0  0  0  0  0  0  3  0  0
    4.9869    1.3218    0.0000 C   0  0  0  0  0  0  0  0  0  4  0  0
    3.4870    1.3147    0.0000 C   0  0  0  0  0  0  0  0  0  5  0  0
    2.7431    0.0122    0.0000 C   0  0  0  0  0  0  0  0  0  6  0  0
    1.2431    0.0051    0.0000 C   0  0  0  0  0  0  0  0  0  7  0  0
    0.4870    1.3006    0.0000 C   0  0  0  0  0  0  0  0  0  8  0  0
    1.2309    2.6032    0.0000 C   0  0  0  0  0  0  0  0  0  9  0  0
    0.4748    3.8987    0.0000 O   0  0  0  0  0  0  0  0  0 10  0  0
    2.7309    2.6102    0.0000 O   0  0  0  0  0  0  0  0  0 11  0  0
    2.9041   -2.3253    0.0000 H   0  0  0  0  0  0  0  0  0  0  0  0
    9.3017   -2.0060    0.0000 C   0  0  0  0  0  0  0  0  0  0  0  0
    7.9991   -1.2621    0.0000 C   0  0  0  0  0  0  0  0  0  0  0  0
    7.2552   -2.5647    0.0000 C   0  0  0  0  0  0  0  0  0  0  0  0
    5.7553   -2.5717    0.0000 C   0  0  0  0  0  0  0  0  0  0  0  0
    7.2430    0.0334    0.0000 O   0  0  0  0  0  0  0  0  0  0  0  0
    9.2946   -0.5060    0.0000 C   0  0  0  0  0  0  0  0  0  0  0  0
    5.7308    2.6244    0.0000 O   0  0  0  0  0  0  0  0  0  0  0  0
    4.9747    3.9198    0.0000 C   0  0  0  0  0  0  0  0  0  0  0  0
   -0.7130    1.2950    0.0000 H   0  0  0  0  0  0  0  0  0  0  0  0
   -0.9886   -3.9025    0.0000 C   0  0  0  0  0  0  0  0  0  0  0  0
   -1.7324   -5.2051    0.0000 C   0  0  0  0  0  0  0  0  0  0  0  0
   -3.2324   -5.2121    0.0000 C   0  0  0  0  0  0  0  0  0  0  0  0
   -3.9885   -3.9166    0.0000 C   0  0  0  0  0  0  0  0  0  0  0  0
   -3.2446   -2.6141    0.0000 C   0  0  0  0  0  0  0  0  0  0  0  0
   -1.7447   -2.6070    0.0000 C   0  0  0  0  0  0  0  0  0  0  0  0
   -1.0008   -1.3045    0.0000 O   0  0  0  0  0  0  0  0  0  0  0  0
    0.4992   -1.2974    0.0000 C   0  0  0  0  0  0  0  0  0  0  0  0
   -5.4885   -3.9237    0.0000 O   0  0  0  0  0  0  0  0  0  0  0  0
   -6.2446   -2.6282    0.0000 C   0  0  0  0  0  0  0  0  0  0  0  0
   -3.9763   -6.5147    0.0000 O   0  0  0  0  0  0  0  0  0  0  0  0
   -3.2202   -7.8102    0.0000 C   0  0  0  0  0  0  0  0  0  0  0  0
  1  2  1  0  0  0  0
  1  6  2  0  0  0  0
  2  3  2  0  0  0  0
  3  4  1  0  0  0  0
  4  5  2  0  0  0  0
  5  6  1  0  0  0  0
  5 11  1  0  0  0  0
  6  7  1  0  0  0  0
  7  8  2  0  0  0  0
  8  9  1  0  0  0  0
  9 10  2  0  0  0  0
  9 11  1  0  0  0  0
  1 12  1  0  0  0  0
 13 14  1  0  0  0  0
 14 15  1  0  0  0  0
 14 17  1  0  0  0  0
 14 18  1  0  0  0  0
 15 16  2  0  0  0  0
  2 16  1  0  0  0  0
  3 17  1  0  0  0  0
 19 20  1  0  0  0  0
  4 19  1  0  0  0  0
  8 21  1  0  0  0  0
 22 23  1  0  0  0  0
 22 27  2  0  0  0  0
 23 24  2  0  0  0  0
 24 25  1  0  0  0  0
 24 32  1  0  0  0  0
 25 26  2  0  0  0  0
 25 30  1  0  0  0  0
 26 27  1  0  0  0  0
 27 28  1  0  0  0  0
 28 29  1  0  0  0  0
 30 31  1  0  0  0  0
 32 33  1  0  0  0  0
  7 29  1  0  0  0  0
M  END
> <score_Kier3>
0.511754

$$$$
suggested molecule #531
 MOE2019            2D

 33 36  0  0  0  0  0  0  0  0999 V2000
    3.4992   -1.2833    0.0000 C   0  0  0  0  0  0  0  0  0  1  0  0
    4.9992   -1.2762    0.0000 C   0  0  0  0  0  0  0  0  0  2  0  0
    5.7430    0.0263    0.0000 C   0  0  0  0  0  0  0  0  0  3  0  0
    4.9869    1.3218    0.0000 C   0  0  0  0  0  0  0  0  0  4  0  0
    3.4870    1.3147    0.0000 C   0  0  0  0  0  0  0  0  0  5  0  0
    2.7431    0.0122    0.0000 C   0  0  0  0  0  0  0  0  0  6  0  0
    1.2431    0.0051    0.0000 C   0  0  0  0  0  0  0  0  0  7  0  0
    0.4870    1.3006    0.0000 C   0  0  0  0  0  0  0  0  0  8  0  0
    1.2309    2.6032    0.0000 C   0  0  0  0  0  0  0  0  0  9  0  0
    0.4748    3.8987    0.0000 O   0  0  0  0  0  0  0  0  0 10  0  0
    2.7309    2.6102    0.0000 O   0  0  0  0  0  0  0  0  0 11  0  0
    2.9041   -2.3253    0.0000 H   0  0  0  0  0  0  0  0  0  0  0  0
    9.3017   -2.0060    0.0000 C   0  0  0  0  0  0  0  0  0  0  0  0
    7.9991   -1.2621    0.0000 C   0  0  0  0  0  0  0  0  0  0  0  0
    7.2552   -2.5647    0.0000 C   0  0  0  0  0  0  0  0  0  0  0  0
    5.7553   -2.5717    0.0000 C   0  0  0  0  0  0  0  0  0  0  0  0
    7.2430    0.0334    0.0000 O   0  0  0  0  0  0  0  0  0  0  0  0
    9.2946   -0.5060    0.0000 C   0  0  0  0  0  0  0  0  0  0  0  0
    5.7308    2.6244    0.0000 O   0  0  0  0  0  0  0  0  0  0  0  0
    4.9747    3.9198    0.0000 C   0  0  0  0  0  0  0  0  0  0  0  0
   -0.7130    1.2950    0.0000 H   0  0  0  0  0  0  0  0  0  0  0  0
   -0.9886   -3.9025    0.0000 C   0  0  0  0  0  0  0  0  0  0  0  0
   -1.7324   -5.2051    0.0000 C   0  0  0  0  0  0  0  0  0  0  0  0
   -3.2324   -5.2121    0.0000 C   0  0  0  0  0  0  0  0  0  0  0  0
   -3.9885   -3.9166    0.0000 C   0  0  0  0  0  0  0  0  0  0  0  0
   -3.2446   -2.6141    0.0000 C   0  0  0  0  0  0  0  0  0  0  0  0
   -1.7447   -2.6070    0.0000 C   0  0  0  0  0  0  0  0  0  0  0  0
   -1.0008   -1.3045    0.0000 O   0  0  0  0  0  0  0  0  0  0  0  0
    0.4992   -1.2974    0.0000 C   0  0  0  0  0  0  0  0  0  0  0  0
   -5.4885   -3.9237    0.0000 O   0  0  0  0  0  0  0  0  0  0  0  0
   -6.2446   -2.6282    0.0000 C   0  0  0  0  0  0  0  0  0  0  0  0
   -3.9763   -6.5147    0.0000 O   0  0  0  0  0  0  0  0  0  0  0  0
   -3.2202   -7.8102    0.0000 C   0  0  0  0  0  0  0  0  0  0  0  0
  1  2  1  0  0  0  0
  1  6  2  0  0  0  0
  2  3  2  0  0  0  0
  3  4  1  0  0  0  0
  4  5  2  0  0  0  0
  5  6  1  0  0  0  0
  5 11  1  0  0  0  0
  6  7  1  0  0  0  0
  7  8  2  0  0  0  0
  8  9  1  0  0  0  0
  9 10  2  0  0  0  0
  9 11  1  0  0  0  0
  1 12  1  0  0  0  0
 13 14  1  0  0  0  0
 14 15  1  0  0  0  0
 14 17  1  0  0  0  0
 14 18  1  0  0  0  0
 15 16  2  0  0  0  0
  2 16  1  0  0  0  0
  3 17  1  0  0  0  0
 19 20  1  0  0  0  0
  4 19  1  0  0  0  0
  8 21  1  0  0  0  0
 22 23  1  0  0  0  0
 22 27  2  0  0  0  0
 23 24  2  0  0  0  0
 24 25  1  0  0  0  0
 24 32  1  0  0  0  0
 25 26  2  0  0  0  0
 25 30  1  0  0  0  0
 26 27  1  0  0  0  0
 27 28  1  0  0  0  0
 28 29  1  0  0  0  0
 30 31  1  0  0  0  0
 32 33  1  0  0  0  0
  7 29  1  0  0  0  0
M  END
> <score_KierA1>
0.517773

$$$$
suggested molecule #532
 MOE2019            2D

 33 36  0  0  0  0  0  0  0  0999 V2000
    3.4992   -1.2833    0.0000 C   0  0  0  0  0  0  0  0  0  1  0  0
    4.9992   -1.2762    0.0000 C   0  0  0  0  0  0  0  0  0  2  0  0
    5.7430    0.0263    0.0000 C   0  0  0  0  0  0  0  0  0  3  0  0
    4.9869    1.3218    0.0000 C   0  0  0  0  0  0  0  0  0  4  0  0
    3.4870    1.3147    0.0000 C   0  0  0  0  0  0  0  0  0  5  0  0
    2.7431    0.0122    0.0000 C   0  0  0  0  0  0  0  0  0  6  0  0
    1.2431    0.0051    0.0000 C   0  0  0  0  0  0  0  0  0  7  0  0
    0.4870    1.3006    0.0000 C   0  0  0  0  0  0  0  0  0  8  0  0
    1.2309    2.6032    0.0000 C   0  0  0  0  0  0  0  0  0  9  0  0
    0.4748    3.8987    0.0000 O   0  0  0  0  0  0  0  0  0 10  0  0
    2.7309    2.6102    0.0000 O   0  0  0  0  0  0  0  0  0 11  0  0
    2.9041   -2.3253    0.0000 H   0  0  0  0  0  0  0  0  0  0  0  0
    9.3017   -2.0060    0.0000 C   0  0  0  0  0  0  0  0  0  0  0  0
    7.9991   -1.2621    0.0000 C   0  0  0  0  0  0  0  0  0  0  0  0
    7.2552   -2.5647    0.0000 C   0  0  0  0  0  0  0  0  0  0  0  0
    5.7553   -2.5717    0.0000 C   0  0  0  0  0  0  0  0  0  0  0  0
    7.2430    0.0334    0.0000 O   0  0  0  0  0  0  0  0  0  0  0  0
    9.2946   -0.5060    0.0000 C   0  0  0  0  0  0  0  0  0  0  0  0
    5.7308    2.6244    0.0000 O   0  0  0  0  0  0  0  0  0  0  0  0
    4.9747    3.9198    0.0000 C   0  0  0  0  0  0  0  0  0  0  0  0
   -0.7130    1.2950    0.0000 H   0  0  0  0  0  0  0  0  0  0  0  0
   -0.9886   -3.9025    0.0000 C   0  0  0  0  0  0  0  0  0  0  0  0
   -1.7324   -5.2051    0.0000 C   0  0  0  0  0  0  0  0  0  0  0  0
   -3.2324   -5.2121    0.0000 C   0  0  0  0  0  0  0  0  0  0  0  0
   -3.9885   -3.9166    0.0000 C   0  0  0  0  0  0  0  0  0  0  0  0
   -3.2446   -2.6141    0.0000 C   0  0  0  0  0  0  0  0  0  0  0  0
   -1.7447   -2.6070    0.0000 C   0  0  0  0  0  0  0  0  0  0  0  0
   -1.0008   -1.3045    0.0000 O   0  0  0  0  0  0  0  0  0  0  0  0
    0.4992   -1.2974    0.0000 C   0  0  0  0  0  0  0  0  0  0  0  0
   -5.4885   -3.9237    0.0000 O   0  0  0  0  0  0  0  0  0  0  0  0
   -6.2446   -2.6282    0.0000 C   0  0  0  0  0  0  0  0  0  0  0  0
   -3.9763   -6.5147    0.0000 O   0  0  0  0  0  0  0  0  0  0  0  0
   -3.2202   -7.8102    0.0000 C   0  0  0  0  0  0  0  0  0  0  0  0
  1  2  1  0  0  0  0
  1  6  2  0  0  0  0
  2  3  2  0  0  0  0
  3  4  1  0  0  0  0
  4  5  2  0  0  0  0
  5  6  1  0  0  0  0
  5 11  1  0  0  0  0
  6  7  1  0  0  0  0
  7  8  2  0  0  0  0
  8  9  1  0  0  0  0
  9 10  2  0  0  0  0
  9 11  1  0  0  0  0
  1 12  1  0  0  0  0
 13 14  1  0  0  0  0
 14 15  1  0  0  0  0
 14 17  1  0  0  0  0
 14 18  1  0  0  0  0
 15 16  2  0  0  0  0
  2 16  1  0  0  0  0
  3 17  1  0  0  0  0
 19 20  1  0  0  0  0
  4 19  1  0  0  0  0
  8 21  1  0  0  0  0
 22 23  1  0  0  0  0
 22 27  2  0  0  0  0
 23 24  2  0  0  0  0
 24 25  1  0  0  0  0
 24 32  1  0  0  0  0
 25 26  2  0  0  0  0
 25 30  1  0  0  0  0
 26 27  1  0  0  0  0
 27 28  1  0  0  0  0
 28 29  1  0  0  0  0
 30 31  1  0  0  0  0
 32 33  1  0  0  0  0
  7 29  1  0  0  0  0
M  END
> <score_KierA2>
0.516838

$$$$
suggested molecule #533
 MOE2019            2D

 33 36  0  0  0  0  0  0  0  0999 V2000
    3.4992   -1.2833    0.0000 C   0  0  0  0  0  0  0  0  0  1  0  0
    4.9992   -1.2762    0.0000 C   0  0  0  0  0  0  0  0  0  2  0  0
    5.7430    0.0263    0.0000 C   0  0  0  0  0  0  0  0  0  3  0  0
    4.9869    1.3218    0.0000 C   0  0  0  0  0  0  0  0  0  4  0  0
    3.4870    1.3147    0.0000 C   0  0  0  0  0  0  0  0  0  5  0  0
    2.7431    0.0122    0.0000 C   0  0  0  0  0  0  0  0  0  6  0  0
    1.2431    0.0051    0.0000 C   0  0  0  0  0  0  0  0  0  7  0  0
    0.4870    1.3006    0.0000 C   0  0  0  0  0  0  0  0  0  8  0  0
    1.2309    2.6032    0.0000 C   0  0  0  0  0  0  0  0  0  9  0  0
    0.4748    3.8987    0.0000 O   0  0  0  0  0  0  0  0  0 10  0  0
    2.7309    2.6102    0.0000 O   0  0  0  0  0  0  0  0  0 11  0  0
    2.9041   -2.3253    0.0000 H   0  0  0  0  0  0  0  0  0  0  0  0
    9.3017   -2.0060    0.0000 C   0  0  0  0  0  0  0  0  0  0  0  0
    7.9991   -1.2621    0.0000 C   0  0  0  0  0  0  0  0  0  0  0  0
    7.2552   -2.5647    0.0000 C   0  0  0  0  0  0  0  0  0  0  0  0
    5.7553   -2.5717    0.0000 C   0  0  0  0  0  0  0  0  0  0  0  0
    7.2430    0.0334    0.0000 O   0  0  0  0  0  0  0  0  0  0  0  0
    9.2946   -0.5060    0.0000 C   0  0  0  0  0  0  0  0  0  0  0  0
    5.7308    2.6244    0.0000 O   0  0  0  0  0  0  0  0  0  0  0  0
    4.9747    3.9198    0.0000 C   0  0  0  0  0  0  0  0  0  0  0  0
   -0.7130    1.2950    0.0000 H   0  0  0  0  0  0  0  0  0  0  0  0
   -0.9886   -3.9025    0.0000 C   0  0  0  0  0  0  0  0  0  0  0  0
   -1.7324   -5.2051    0.0000 C   0  0  0  0  0  0  0  0  0  0  0  0
   -3.2324   -5.2121    0.0000 C   0  0  0  0  0  0  0  0  0  0  0  0
   -3.9885   -3.9166    0.0000 C   0  0  0  0  0  0  0  0  0  0  0  0
   -3.2446   -2.6141    0.0000 C   0  0  0  0  0  0  0  0  0  0  0  0
   -1.7447   -2.6070    0.0000 C   0  0  0  0  0  0  0  0  0  0  0  0
   -1.0008   -1.3045    0.0000 O   0  0  0  0  0  0  0  0  0  0  0  0
    0.4992   -1.2974    0.0000 C   0  0  0  0  0  0  0  0  0  0  0  0
   -5.4885   -3.9237    0.0000 O   0  0  0  0  0  0  0  0  0  0  0  0
   -6.2446   -2.6282    0.0000 C   0  0  0  0  0  0  0  0  0  0  0  0
   -3.9763   -6.5147    0.0000 O   0  0  0  0  0  0  0  0  0  0  0  0
   -3.2202   -7.8102    0.0000 C   0  0  0  0  0  0  0  0  0  0  0  0
  1  2  1  0  0  0  0
  1  6  2  0  0  0  0
  2  3  2  0  0  0  0
  3  4  1  0  0  0  0
  4  5  2  0  0  0  0
  5  6  1  0  0  0  0
  5 11  1  0  0  0  0
  6  7  1  0  0  0  0
  7  8  2  0  0  0  0
  8  9  1  0  0  0  0
  9 10  2  0  0  0  0
  9 11  1  0  0  0  0
  1 12  1  0  0  0  0
 13 14  1  0  0  0  0
 14 15  1  0  0  0  0
 14 17  1  0  0  0  0
 14 18  1  0  0  0  0
 15 16  2  0  0  0  0
  2 16  1  0  0  0  0
  3 17  1  0  0  0  0
 19 20  1  0  0  0  0
  4 19  1  0  0  0  0
  8 21  1  0  0  0  0
 22 23  1  0  0  0  0
 22 27  2  0  0  0  0
 23 24  2  0  0  0  0
 24 25  1  0  0  0  0
 24 32  1  0  0  0  0
 25 26  2  0  0  0  0
 25 30  1  0  0  0  0
 26 27  1  0  0  0  0
 27 28  1  0  0  0  0
 28 29  1  0  0  0  0
 30 31  1  0  0  0  0
 32 33  1  0  0  0  0
  7 29  1  0  0  0  0
M  END
> <score_KierA3>
0.512469

$$$$
suggested molecule #534
 MOE2019            2D

 33 36  0  0  0  0  0  0  0  0999 V2000
    3.4992   -1.2833    0.0000 C   0  0  0  0  0  0  0  0  0  1  0  0
    4.9992   -1.2762    0.0000 C   0  0  0  0  0  0  0  0  0  2  0  0
    5.7430    0.0263    0.0000 C   0  0  0  0  0  0  0  0  0  3  0  0
    4.9869    1.3218    0.0000 C   0  0  0  0  0  0  0  0  0  4  0  0
    3.4870    1.3147    0.0000 C   0  0  0  0  0  0  0  0  0  5  0  0
    2.7431    0.0122    0.0000 C   0  0  0  0  0  0  0  0  0  6  0  0
    1.2431    0.0051    0.0000 C   0  0  0  0  0  0  0  0  0  7  0  0
    0.4870    1.3006    0.0000 C   0  0  0  0  0  0  0  0  0  8  0  0
    1.2309    2.6032    0.0000 C   0  0  0  0  0  0  0  0  0  9  0  0
    0.4748    3.8987    0.0000 O   0  0  0  0  0  0  0  0  0 10  0  0
    2.7309    2.6102    0.0000 O   0  0  0  0  0  0  0  0  0 11  0  0
    2.9041   -2.3253    0.0000 H   0  0  0  0  0  0  0  0  0  0  0  0
    9.3017   -2.0060    0.0000 C   0  0  0  0  0  0  0  0  0  0  0  0
    7.9991   -1.2621    0.0000 C   0  0  0  0  0  0  0  0  0  0  0  0
    7.2552   -2.5647    0.0000 C   0  0  0  0  0  0  0  0  0  0  0  0
    5.7553   -2.5717    0.0000 C   0  0  0  0  0  0  0  0  0  0  0  0
    7.2430    0.0334    0.0000 O   0  0  0  0  0  0  0  0  0  0  0  0
    9.2946   -0.5060    0.0000 C   0  0  0  0  0  0  0  0  0  0  0  0
    5.7308    2.6244    0.0000 O   0  0  0  0  0  0  0  0  0  0  0  0
    4.9747    3.9198    0.0000 C   0  0  0  0  0  0  0  0  0  0  0  0
   -0.7130    1.2950    0.0000 H   0  0  0  0  0  0  0  0  0  0  0  0
   -0.9886   -3.9025    0.0000 C   0  0  0  0  0  0  0  0  0  0  0  0
   -1.7324   -5.2051    0.0000 C   0  0  0  0  0  0  0  0  0  0  0  0
   -3.2324   -5.2121    0.0000 C   0  0  0  0  0  0  0  0  0  0  0  0
   -3.9885   -3.9166    0.0000 C   0  0  0  0  0  0  0  0  0  0  0  0
   -3.2446   -2.6141    0.0000 C   0  0  0  0  0  0  0  0  0  0  0  0
   -1.7447   -2.6070    0.0000 C   0  0  0  0  0  0  0  0  0  0  0  0
   -1.0008   -1.3045    0.0000 O   0  0  0  0  0  0  0  0  0  0  0  0
    0.4992   -1.2974    0.0000 C   0  0  0  0  0  0  0  0  0  0  0  0
   -5.4885   -3.9237    0.0000 O   0  0  0  0  0  0  0  0  0  0  0  0
   -6.2446   -2.6282    0.0000 C   0  0  0  0  0  0  0  0  0  0  0  0
   -3.9763   -6.5147    0.0000 O   0  0  0  0  0  0  0  0  0  0  0  0
   -3.2202   -7.8102    0.0000 C   0  0  0  0  0  0  0  0  0  0  0  0
  1  2  1  0  0  0  0
  1  6  2  0  0  0  0
  2  3  2  0  0  0  0
  3  4  1  0  0  0  0
  4  5  2  0  0  0  0
  5  6  1  0  0  0  0
  5 11  1  0  0  0  0
  6  7  1  0  0  0  0
  7  8  2  0  0  0  0
  8  9  1  0  0  0  0
  9 10  2  0  0  0  0
  9 11  1  0  0  0  0
  1 12  1  0  0  0  0
 13 14  1  0  0  0  0
 14 15  1  0  0  0  0
 14 17  1  0  0  0  0
 14 18  1  0  0  0  0
 15 16  2  0  0  0  0
  2 16  1  0  0  0  0
  3 17  1  0  0  0  0
 19 20  1  0  0  0  0
  4 19  1  0  0  0  0
  8 21  1  0  0  0  0
 22 23  1  0  0  0  0
 22 27  2  0  0  0  0
 23 24  2  0  0  0  0
 24 25  1  0  0  0  0
 24 32  1  0  0  0  0
 25 26  2  0  0  0  0
 25 30  1  0  0  0  0
 26 27  1  0  0  0  0
 27 28  1  0  0  0  0
 28 29  1  0  0  0  0
 30 31  1  0  0  0  0
 32 33  1  0  0  0  0
  7 29  1  0  0  0  0
M  END
> <score_KierFlex>
0.516601

$$$$
suggested molecule #535
 MOE2019            2D

 33 36  0  0  0  0  0  0  0  0999 V2000
    3.4992   -1.2833    0.0000 C   0  0  0  0  0  0  0  0  0  1  0  0
    4.9992   -1.2762    0.0000 C   0  0  0  0  0  0  0  0  0  2  0  0
    5.7430    0.0263    0.0000 C   0  0  0  0  0  0  0  0  0  3  0  0
    4.9869    1.3218    0.0000 C   0  0  0  0  0  0  0  0  0  4  0  0
    3.4870    1.3147    0.0000 C   0  0  0  0  0  0  0  0  0  5  0  0
    2.7431    0.0122    0.0000 C   0  0  0  0  0  0  0  0  0  6  0  0
    1.2431    0.0051    0.0000 C   0  0  0  0  0  0  0  0  0  7  0  0
    0.4870    1.3006    0.0000 C   0  0  0  0  0  0  0  0  0  8  0  0
    1.2309    2.6032    0.0000 C   0  0  0  0  0  0  0  0  0  9  0  0
    0.4748    3.8987    0.0000 O   0  0  0  0  0  0  0  0  0 10  0  0
    2.7309    2.6102    0.0000 O   0  0  0  0  0  0  0  0  0 11  0  0
    2.9041   -2.3253    0.0000 H   0  0  0  0  0  0  0  0  0  0  0  0
    9.3017   -2.0060    0.0000 C   0  0  0  0  0  0  0  0  0  0  0  0
    7.9991   -1.2621    0.0000 C   0  0  0  0  0  0  0  0  0  0  0  0
    7.2552   -2.5647    0.0000 C   0  0  0  0  0  0  0  0  0  0  0  0
    5.7553   -2.5717    0.0000 C   0  0  0  0  0  0  0  0  0  0  0  0
    7.2430    0.0334    0.0000 O   0  0  0  0  0  0  0  0  0  0  0  0
    9.2946   -0.5060    0.0000 C   0  0  0  0  0  0  0  0  0  0  0  0
    5.7308    2.6244    0.0000 O   0  0  0  0  0  0  0  0  0  0  0  0
    4.9747    3.9198    0.0000 C   0  0  0  0  0  0  0  0  0  0  0  0
   -0.7130    1.2950    0.0000 H   0  0  0  0  0  0  0  0  0  0  0  0
   -0.9886   -3.9025    0.0000 C   0  0  0  0  0  0  0  0  0  0  0  0
   -1.7324   -5.2051    0.0000 C   0  0  0  0  0  0  0  0  0  0  0  0
   -3.2324   -5.2121    0.0000 C   0  0  0  0  0  0  0  0  0  0  0  0
   -3.9885   -3.9166    0.0000 C   0  0  0  0  0  0  0  0  0  0  0  0
   -3.2446   -2.6141    0.0000 C   0  0  0  0  0  0  0  0  0  0  0  0
   -1.7447   -2.6070    0.0000 C   0  0  0  0  0  0  0  0  0  0  0  0
   -1.0008   -1.3045    0.0000 O   0  0  0  0  0  0  0  0  0  0  0  0
    0.4992   -1.2974    0.0000 C   0  0  0  0  0  0  0  0  0  0  0  0
   -5.4885   -3.9237    0.0000 O   0  0  0  0  0  0  0  0  0  0  0  0
   -6.2446   -2.6282    0.0000 C   0  0  0  0  0  0  0  0  0  0  0  0
   -3.9763   -6.5147    0.0000 O   0  0  0  0  0  0  0  0  0  0  0  0
   -3.2202   -7.8102    0.0000 C   0  0  0  0  0  0  0  0  0  0  0  0
  1  2  1  0  0  0  0
  1  6  2  0  0  0  0
  2  3  2  0  0  0  0
  3  4  1  0  0  0  0
  4  5  2  0  0  0  0
  5  6  1  0  0  0  0
  5 11  1  0  0  0  0
  6  7  1  0  0  0  0
  7  8  2  0  0  0  0
  8  9  1  0  0  0  0
  9 10  2  0  0  0  0
  9 11  1  0  0  0  0
  1 12  1  0  0  0  0
 13 14  1  0  0  0  0
 14 15  1  0  0  0  0
 14 17  1  0  0  0  0
 14 18  1  0  0  0  0
 15 16  2  0  0  0  0
  2 16  1  0  0  0  0
  3 17  1  0  0  0  0
 19 20  1  0  0  0  0
  4 19  1  0  0  0  0
  8 21  1  0  0  0  0
 22 23  1  0  0  0  0
 22 27  2  0  0  0  0
 23 24  2  0  0  0  0
 24 25  1  0  0  0  0
 24 32  1  0  0  0  0
 25 26  2  0  0  0  0
 25 30  1  0  0  0  0
 26 27  1  0  0  0  0
 27 28  1  0  0  0  0
 28 29  1  0  0  0  0
 30 31  1  0  0  0  0
 32 33  1  0  0  0  0
  7 29  1  0  0  0  0
M  END
> <score_Kier1>
0.517725

$$$$
suggested molecule #536
 MOE2019            2D

 33 36  0  0  0  0  0  0  0  0999 V2000
    3.4992   -1.2833    0.0000 C   0  0  0  0  0  0  0  0  0  1  0  0
    4.9992   -1.2762    0.0000 C   0  0  0  0  0  0  0  0  0  2  0  0
    5.7430    0.0263    0.0000 C   0  0  0  0  0  0  0  0  0  3  0  0
    4.9869    1.3218    0.0000 C   0  0  0  0  0  0  0  0  0  4  0  0
    3.4870    1.3147    0.0000 C   0  0  0  0  0  0  0  0  0  5  0  0
    2.7431    0.0122    0.0000 C   0  0  0  0  0  0  0  0  0  6  0  0
    1.2431    0.0051    0.0000 C   0  0  0  0  0  0  0  0  0  7  0  0
    0.4870    1.3006    0.0000 C   0  0  0  0  0  0  0  0  0  8  0  0
    1.2309    2.6032    0.0000 C   0  0  0  0  0  0  0  0  0  9  0  0
    0.4748    3.8987    0.0000 O   0  0  0  0  0  0  0  0  0 10  0  0
    2.7309    2.6102    0.0000 O   0  0  0  0  0  0  0  0  0 11  0  0
    2.9041   -2.3253    0.0000 H   0  0  0  0  0  0  0  0  0  0  0  0
    9.3017   -2.0060    0.0000 C   0  0  0  0  0  0  0  0  0  0  0  0
    7.9991   -1.2621    0.0000 C   0  0  0  0  0  0  0  0  0  0  0  0
    7.2552   -2.5647    0.0000 C   0  0  0  0  0  0  0  0  0  0  0  0
    5.7553   -2.5717    0.0000 C   0  0  0  0  0  0  0  0  0  0  0  0
    7.2430    0.0334    0.0000 O   0  0  0  0  0  0  0  0  0  0  0  0
    9.2946   -0.5060    0.0000 C   0  0  0  0  0  0  0  0  0  0  0  0
    5.7308    2.6244    0.0000 O   0  0  0  0  0  0  0  0  0  0  0  0
    4.9747    3.9198    0.0000 C   0  0  0  0  0  0  0  0  0  0  0  0
   -0.7130    1.2950    0.0000 H   0  0  0  0  0  0  0  0  0  0  0  0
   -0.9886   -3.9025    0.0000 C   0  0  0  0  0  0  0  0  0  0  0  0
   -1.7324   -5.2051    0.0000 C   0  0  0  0  0  0  0  0  0  0  0  0
   -3.2324   -5.2121    0.0000 C   0  0  0  0  0  0  0  0  0  0  0  0
   -3.9885   -3.9166    0.0000 C   0  0  0  0  0  0  0  0  0  0  0  0
   -3.2446   -2.6141    0.0000 C   0  0  0  0  0  0  0  0  0  0  0  0
   -1.7447   -2.6070    0.0000 C   0  0  0  0  0  0  0  0  0  0  0  0
   -1.0008   -1.3045    0.0000 O   0  0  0  0  0  0  0  0  0  0  0  0
    0.4992   -1.2974    0.0000 C   0  0  0  0  0  0  0  0  0  0  0  0
   -5.4885   -3.9237    0.0000 O   0  0  0  0  0  0  0  0  0  0  0  0
   -6.2446   -2.6282    0.0000 C   0  0  0  0  0  0  0  0  0  0  0  0
   -3.9763   -6.5147    0.0000 O   0  0  0  0  0  0  0  0  0  0  0  0
   -3.2202   -7.8102    0.0000 C   0  0  0  0  0  0  0  0  0  0  0  0
  1  2  1  0  0  0  0
  1  6  2  0  0  0  0
  2  3  2  0  0  0  0
  3  4  1  0  0  0  0
  4  5  2  0  0  0  0
  5  6  1  0  0  0  0
  5 11  1  0  0  0  0
  6  7  1  0  0  0  0
  7  8  2  0  0  0  0
  8  9  1  0  0  0  0
  9 10  2  0  0  0  0
  9 11  1  0  0  0  0
  1 12  1  0  0  0  0
 13 14  1  0  0  0  0
 14 15  1  0  0  0  0
 14 17  1  0  0  0  0
 14 18  1  0  0  0  0
 15 16  2  0  0  0  0
  2 16  1  0  0  0  0
  3 17  1  0  0  0  0
 19 20  1  0  0  0  0
  4 19  1  0  0  0  0
  8 21  1  0  0  0  0
 22 23  1  0  0  0  0
 22 27  2  0  0  0  0
 23 24  2  0  0  0  0
 24 25  1  0  0  0  0
 24 32  1  0  0  0  0
 25 26  2  0  0  0  0
 25 30  1  0  0  0  0
 26 27  1  0  0  0  0
 27 28  1  0  0  0  0
 28 29  1  0  0  0  0
 30 31  1  0  0  0  0
 32 33  1  0  0  0  0
  7 29  1  0  0  0  0
M  END
> <score_Kier3>
0.511754

$$$$
suggested molecule #537
 MOE2019            2D

 33 36  0  0  0  0  0  0  0  0999 V2000
    3.4992   -1.2833    0.0000 C   0  0  0  0  0  0  0  0  0  1  0  0
    4.9992   -1.2762    0.0000 C   0  0  0  0  0  0  0  0  0  2  0  0
    5.7430    0.0263    0.0000 C   0  0  0  0  0  0  0  0  0  3  0  0
    4.9869    1.3218    0.0000 C   0  0  0  0  0  0  0  0  0  4  0  0
    3.4870    1.3147    0.0000 C   0  0  0  0  0  0  0  0  0  5  0  0
    2.7431    0.0122    0.0000 C   0  0  0  0  0  0  0  0  0  6  0  0
    1.2431    0.0051    0.0000 C   0  0  0  0  0  0  0  0  0  7  0  0
    0.4870    1.3006    0.0000 C   0  0  0  0  0  0  0  0  0  8  0  0
    1.2309    2.6032    0.0000 C   0  0  0  0  0  0  0  0  0  9  0  0
    0.4748    3.8987    0.0000 O   0  0  0  0  0  0  0  0  0 10  0  0
    2.7309    2.6102    0.0000 O   0  0  0  0  0  0  0  0  0 11  0  0
    2.9041   -2.3253    0.0000 H   0  0  0  0  0  0  0  0  0  0  0  0
    9.3017   -2.0060    0.0000 C   0  0  0  0  0  0  0  0  0  0  0  0
    7.9991   -1.2621    0.0000 C   0  0  0  0  0  0  0  0  0  0  0  0
    7.2552   -2.5647    0.0000 C   0  0  0  0  0  0  0  0  0  0  0  0
    5.7553   -2.5717    0.0000 C   0  0  0  0  0  0  0  0  0  0  0  0
    7.2430    0.0334    0.0000 O   0  0  0  0  0  0  0  0  0  0  0  0
    9.2946   -0.5060    0.0000 C   0  0  0  0  0  0  0  0  0  0  0  0
    5.7308    2.6244    0.0000 O   0  0  0  0  0  0  0  0  0  0  0  0
    4.9747    3.9198    0.0000 C   0  0  0  0  0  0  0  0  0  0  0  0
   -0.7130    1.2950    0.0000 H   0  0  0  0  0  0  0  0  0  0  0  0
   -0.9886   -3.9025    0.0000 C   0  0  0  0  0  0  0  0  0  0  0  0
   -1.7324   -5.2051    0.0000 C   0  0  0  0  0  0  0  0  0  0  0  0
   -3.2324   -5.2121    0.0000 C   0  0  0  0  0  0  0  0  0  0  0  0
   -3.9885   -3.9166    0.0000 C   0  0  0  0  0  0  0  0  0  0  0  0
   -3.2446   -2.6141    0.0000 C   0  0  0  0  0  0  0  0  0  0  0  0
   -1.7447   -2.6070    0.0000 C   0  0  0  0  0  0  0  0  0  0  0  0
   -1.0008   -1.3045    0.0000 O   0  0  0  0  0  0  0  0  0  0  0  0
    0.4992   -1.2974    0.0000 C   0  0  0  0  0  0  0  0  0  0  0  0
   -5.4885   -3.9237    0.0000 O   0  0  0  0  0  0  0  0  0  0  0  0
   -6.2446   -2.6282    0.0000 C   0  0  0  0  0  0  0  0  0  0  0  0
   -3.9763   -6.5147    0.0000 O   0  0  0  0  0  0  0  0  0  0  0  0
   -3.2202   -7.8102    0.0000 C   0  0  0  0  0  0  0  0  0  0  0  0
  1  2  1  0  0  0  0
  1  6  2  0  0  0  0
  2  3  2  0  0  0  0
  3  4  1  0  0  0  0
  4  5  2  0  0  0  0
  5  6  1  0  0  0  0
  5 11  1  0  0  0  0
  6  7  1  0  0  0  0
  7  8  2  0  0  0  0
  8  9  1  0  0  0  0
  9 10  2  0  0  0  0
  9 11  1  0  0  0  0
  1 12  1  0  0  0  0
 13 14  1  0  0  0  0
 14 15  1  0  0  0  0
 14 17  1  0  0  0  0
 14 18  1  0  0  0  0
 15 16  2  0  0  0  0
  2 16  1  0  0  0  0
  3 17  1  0  0  0  0
 19 20  1  0  0  0  0
  4 19  1  0  0  0  0
  8 21  1  0  0  0  0
 22 23  1  0  0  0  0
 22 27  2  0  0  0  0
 23 24  2  0  0  0  0
 24 25  1  0  0  0  0
 24 32  1  0  0  0  0
 25 26  2  0  0  0  0
 25 30  1  0  0  0  0
 26 27  1  0  0  0  0
 27 28  1  0  0  0  0
 28 29  1  0  0  0  0
 30 31  1  0  0  0  0
 32 33  1  0  0  0  0
  7 29  1  0  0  0  0
M  END
> <score_KierA1>
0.517769

$$$$
suggested molecule #538
 MOE2019            2D

 33 36  0  0  0  0  0  0  0  0999 V2000
    3.4992   -1.2833    0.0000 C   0  0  0  0  0  0  0  0  0  1  0  0
    4.9992   -1.2762    0.0000 C   0  0  0  0  0  0  0  0  0  2  0  0
    5.7430    0.0263    0.0000 C   0  0  0  0  0  0  0  0  0  3  0  0
    4.9869    1.3218    0.0000 C   0  0  0  0  0  0  0  0  0  4  0  0
    3.4870    1.3147    0.0000 C   0  0  0  0  0  0  0  0  0  5  0  0
    2.7431    0.0122    0.0000 C   0  0  0  0  0  0  0  0  0  6  0  0
    1.2431    0.0051    0.0000 C   0  0  0  0  0  0  0  0  0  7  0  0
    0.4870    1.3006    0.0000 C   0  0  0  0  0  0  0  0  0  8  0  0
    1.2309    2.6032    0.0000 C   0  0  0  0  0  0  0  0  0  9  0  0
    0.4748    3.8987    0.0000 O   0  0  0  0  0  0  0  0  0 10  0  0
    2.7309    2.6102    0.0000 O   0  0  0  0  0  0  0  0  0 11  0  0
    2.9041   -2.3253    0.0000 H   0  0  0  0  0  0  0  0  0  0  0  0
    9.3017   -2.0060    0.0000 C   0  0  0  0  0  0  0  0  0  0  0  0
    7.9991   -1.2621    0.0000 C   0  0  0  0  0  0  0  0  0  0  0  0
    7.2552   -2.5647    0.0000 C   0  0  0  0  0  0  0  0  0  0  0  0
    5.7553   -2.5717    0.0000 C   0  0  0  0  0  0  0  0  0  0  0  0
    7.2430    0.0334    0.0000 O   0  0  0  0  0  0  0  0  0  0  0  0
    9.2946   -0.5060    0.0000 C   0  0  0  0  0  0  0  0  0  0  0  0
    5.7308    2.6244    0.0000 O   0  0  0  0  0  0  0  0  0  0  0  0
    4.9747    3.9198    0.0000 C   0  0  0  0  0  0  0  0  0  0  0  0
   -0.7130    1.2950    0.0000 H   0  0  0  0  0  0  0  0  0  0  0  0
   -0.9886   -3.9025    0.0000 C   0  0  0  0  0  0  0  0  0  0  0  0
   -1.7324   -5.2051    0.0000 C   0  0  0  0  0  0  0  0  0  0  0  0
   -3.2324   -5.2121    0.0000 C   0  0  0  0  0  0  0  0  0  0  0  0
   -3.9885   -3.9166    0.0000 C   0  0  0  0  0  0  0  0  0  0  0  0
   -3.2446   -2.6141    0.0000 C   0  0  0  0  0  0  0  0  0  0  0  0
   -1.7447   -2.6070    0.0000 C   0  0  0  0  0  0  0  0  0  0  0  0
   -1.0008   -1.3045    0.0000 O   0  0  0  0  0  0  0  0  0  0  0  0
    0.4992   -1.2974    0.0000 C   0  0  0  0  0  0  0  0  0  0  0  0
   -5.4885   -3.9237    0.0000 O   0  0  0  0  0  0  0  0  0  0  0  0
   -6.2446   -2.6282    0.0000 C   0  0  0  0  0  0  0  0  0  0  0  0
   -3.9763   -6.5147    0.0000 O   0  0  0  0  0  0  0  0  0  0  0  0
   -3.2202   -7.8102    0.0000 C   0  0  0  0  0  0  0  0  0  0  0  0
  1  2  1  0  0  0  0
  1  6  2  0  0  0  0
  2  3  2  0  0  0  0
  3  4  1  0  0  0  0
  4  5  2  0  0  0  0
  5  6  1  0  0  0  0
  5 11  1  0  0  0  0
  6  7  1  0  0  0  0
  7  8  2  0  0  0  0
  8  9  1  0  0  0  0
  9 10  2  0  0  0  0
  9 11  1  0  0  0  0
  1 12  1  0  0  0  0
 13 14  1  0  0  0  0
 14 15  1  0  0  0  0
 14 17  1  0  0  0  0
 14 18  1  0  0  0  0
 15 16  2  0  0  0  0
  2 16  1  0  0  0  0
  3 17  1  0  0  0  0
 19 20  1  0  0  0  0
  4 19  1  0  0  0  0
  8 21  1  0  0  0  0
 22 23  1  0  0  0  0
 22 27  2  0  0  0  0
 23 24  2  0  0  0  0
 24 25  1  0  0  0  0
 24 32  1  0  0  0  0
 25 26  2  0  0  0  0
 25 30  1  0  0  0  0
 26 27  1  0  0  0  0
 27 28  1  0  0  0  0
 28 29  1  0  0  0  0
 30 31  1  0  0  0  0
 32 33  1  0  0  0  0
  7 29  1  0  0  0  0
M  END
> <score_KierA2>
0.516834

$$$$
suggested molecule #539
 MOE2019            2D

 33 36  0  0  0  0  0  0  0  0999 V2000
    3.4992   -1.2833    0.0000 C   0  0  0  0  0  0  0  0  0  1  0  0
    4.9992   -1.2762    0.0000 C   0  0  0  0  0  0  0  0  0  2  0  0
    5.7430    0.0263    0.0000 C   0  0  0  0  0  0  0  0  0  3  0  0
    4.9869    1.3218    0.0000 C   0  0  0  0  0  0  0  0  0  4  0  0
    3.4870    1.3147    0.0000 C   0  0  0  0  0  0  0  0  0  5  0  0
    2.7431    0.0122    0.0000 C   0  0  0  0  0  0  0  0  0  6  0  0
    1.2431    0.0051    0.0000 C   0  0  0  0  0  0  0  0  0  7  0  0
    0.4870    1.3006    0.0000 C   0  0  0  0  0  0  0  0  0  8  0  0
    1.2309    2.6032    0.0000 C   0  0  0  0  0  0  0  0  0  9  0  0
    0.4748    3.8987    0.0000 O   0  0  0  0  0  0  0  0  0 10  0  0
    2.7309    2.6102    0.0000 O   0  0  0  0  0  0  0  0  0 11  0  0
    2.9041   -2.3253    0.0000 H   0  0  0  0  0  0  0  0  0  0  0  0
    9.3017   -2.0060    0.0000 C   0  0  0  0  0  0  0  0  0  0  0  0
    7.9991   -1.2621    0.0000 C   0  0  0  0  0  0  0  0  0  0  0  0
    7.2552   -2.5647    0.0000 C   0  0  0  0  0  0  0  0  0  0  0  0
    5.7553   -2.5717    0.0000 C   0  0  0  0  0  0  0  0  0  0  0  0
    7.2430    0.0334    0.0000 O   0  0  0  0  0  0  0  0  0  0  0  0
    9.2946   -0.5060    0.0000 C   0  0  0  0  0  0  0  0  0  0  0  0
    5.7308    2.6244    0.0000 O   0  0  0  0  0  0  0  0  0  0  0  0
    4.9747    3.9198    0.0000 C   0  0  0  0  0  0  0  0  0  0  0  0
   -0.7130    1.2950    0.0000 H   0  0  0  0  0  0  0  0  0  0  0  0
   -0.9886   -3.9025    0.0000 C   0  0  0  0  0  0  0  0  0  0  0  0
   -1.7324   -5.2051    0.0000 C   0  0  0  0  0  0  0  0  0  0  0  0
   -3.2324   -5.2121    0.0000 C   0  0  0  0  0  0  0  0  0  0  0  0
   -3.9885   -3.9166    0.0000 C   0  0  0  0  0  0  0  0  0  0  0  0
   -3.2446   -2.6141    0.0000 C   0  0  0  0  0  0  0  0  0  0  0  0
   -1.7447   -2.6070    0.0000 C   0  0  0  0  0  0  0  0  0  0  0  0
   -1.0008   -1.3045    0.0000 O   0  0  0  0  0  0  0  0  0  0  0  0
    0.4992   -1.2974    0.0000 C   0  0  0  0  0  0  0  0  0  0  0  0
   -5.4885   -3.9237    0.0000 O   0  0  0  0  0  0  0  0  0  0  0  0
   -6.2446   -2.6282    0.0000 C   0  0  0  0  0  0  0  0  0  0  0  0
   -3.9763   -6.5147    0.0000 O   0  0  0  0  0  0  0  0  0  0  0  0
   -3.2202   -7.8102    0.0000 C   0  0  0  0  0  0  0  0  0  0  0  0
  1  2  1  0  0  0  0
  1  6  2  0  0  0  0
  2  3  2  0  0  0  0
  3  4  1  0  0  0  0
  4  5  2  0  0  0  0
  5  6  1  0  0  0  0
  5 11  1  0  0  0  0
  6  7  1  0  0  0  0
  7  8  2  0  0  0  0
  8  9  1  0  0  0  0
  9 10  2  0  0  0  0
  9 11  1  0  0  0  0
  1 12  1  0  0  0  0
 13 14  1  0  0  0  0
 14 15  1  0  0  0  0
 14 17  1  0  0  0  0
 14 18  1  0  0  0  0
 15 16  2  0  0  0  0
  2 16  1  0  0  0  0
  3 17  1  0  0  0  0
 19 20  1  0  0  0  0
  4 19  1  0  0  0  0
  8 21  1  0  0  0  0
 22 23  1  0  0  0  0
 22 27  2  0  0  0  0
 23 24  2  0  0  0  0
 24 25  1  0  0  0  0
 24 32  1  0  0  0  0
 25 26  2  0  0  0  0
 25 30  1  0  0  0  0
 26 27  1  0  0  0  0
 27 28  1  0  0  0  0
 28 29  1  0  0  0  0
 30 31  1  0  0  0  0
 32 33  1  0  0  0  0
  7 29  1  0  0  0  0
M  END
> <score_KierA3>
0.512466

$$$$
suggested molecule #540
 MOE2019            2D

 33 36  0  0  0  0  0  0  0  0999 V2000
    3.4992   -1.2833    0.0000 C   0  0  0  0  0  0  0  0  0  1  0  0
    4.9992   -1.2762    0.0000 C   0  0  0  0  0  0  0  0  0  2  0  0
    5.7430    0.0263    0.0000 C   0  0  0  0  0  0  0  0  0  3  0  0
    4.9869    1.3218    0.0000 C   0  0  0  0  0  0  0  0  0  4  0  0
    3.4870    1.3147    0.0000 C   0  0  0  0  0  0  0  0  0  5  0  0
    2.7431    0.0122    0.0000 C   0  0  0  0  0  0  0  0  0  6  0  0
    1.2431    0.0051    0.0000 C   0  0  0  0  0  0  0  0  0  7  0  0
    0.4870    1.3006    0.0000 C   0  0  0  0  0  0  0  0  0  8  0  0
    1.2309    2.6032    0.0000 C   0  0  0  0  0  0  0  0  0  9  0  0
    0.4748    3.8987    0.0000 O   0  0  0  0  0  0  0  0  0 10  0  0
    2.7309    2.6102    0.0000 O   0  0  0  0  0  0  0  0  0 11  0  0
    2.9041   -2.3253    0.0000 H   0  0  0  0  0  0  0  0  0  0  0  0
    9.3017   -2.0060    0.0000 C   0  0  0  0  0  0  0  0  0  0  0  0
    7.9991   -1.2621    0.0000 C   0  0  0  0  0  0  0  0  0  0  0  0
    7.2552   -2.5647    0.0000 C   0  0  0  0  0  0  0  0  0  0  0  0
    5.7553   -2.5717    0.0000 C   0  0  0  0  0  0  0  0  0  0  0  0
    7.2430    0.0334    0.0000 O   0  0  0  0  0  0  0  0  0  0  0  0
    9.2946   -0.5060    0.0000 C   0  0  0  0  0  0  0  0  0  0  0  0
    5.7308    2.6244    0.0000 O   0  0  0  0  0  0  0  0  0  0  0  0
    4.9747    3.9198    0.0000 C   0  0  0  0  0  0  0  0  0  0  0  0
   -0.7130    1.2950    0.0000 H   0  0  0  0  0  0  0  0  0  0  0  0
   -0.9886   -3.9025    0.0000 C   0  0  0  0  0  0  0  0  0  0  0  0
   -1.7324   -5.2051    0.0000 C   0  0  0  0  0  0  0  0  0  0  0  0
   -3.2324   -5.2121    0.0000 C   0  0  0  0  0  0  0  0  0  0  0  0
   -3.9885   -3.9166    0.0000 C   0  0  0  0  0  0  0  0  0  0  0  0
   -3.2446   -2.6141    0.0000 C   0  0  0  0  0  0  0  0  0  0  0  0
   -1.7447   -2.6070    0.0000 C   0  0  0  0  0  0  0  0  0  0  0  0
   -1.0008   -1.3045    0.0000 O   0  0  0  0  0  0  0  0  0  0  0  0
    0.4992   -1.2974    0.0000 C   0  0  0  0  0  0  0  0  0  0  0  0
   -5.4885   -3.9237    0.0000 O   0  0  0  0  0  0  0  0  0  0  0  0
   -6.2446   -2.6282    0.0000 C   0  0  0  0  0  0  0  0  0  0  0  0
   -3.9763   -6.5147    0.0000 O   0  0  0  0  0  0  0  0  0  0  0  0
   -3.2202   -7.8102    0.0000 C   0  0  0  0  0  0  0  0  0  0  0  0
  1  2  1  0  0  0  0
  1  6  2  0  0  0  0
  2  3  2  0  0  0  0
  3  4  1  0  0  0  0
  4  5  2  0  0  0  0
  5  6  1  0  0  0  0
  5 11  1  0  0  0  0
  6  7  1  0  0  0  0
  7  8  2  0  0  0  0
  8  9  1  0  0  0  0
  9 10  2  0  0  0  0
  9 11  1  0  0  0  0
  1 12  1  0  0  0  0
 13 14  1  0  0  0  0
 14 15  1  0  0  0  0
 14 17  1  0  0  0  0
 14 18  1  0  0  0  0
 15 16  2  0  0  0  0
  2 16  1  0  0  0  0
  3 17  1  0  0  0  0
 19 20  1  0  0  0  0
  4 19  1  0  0  0  0
  8 21  1  0  0  0  0
 22 23  1  0  0  0  0
 22 27  2  0  0  0  0
 23 24  2  0  0  0  0
 24 25  1  0  0  0  0
 24 32  1  0  0  0  0
 25 26  2  0  0  0  0
 25 30  1  0  0  0  0
 26 27  1  0  0  0  0
 27 28  1  0  0  0  0
 28 29  1  0  0  0  0
 30 31  1  0  0  0  0
 32 33  1  0  0  0  0
  7 29  1  0  0  0  0
M  END
> <score_KierFlex>
0.516595

$$$$
suggested molecule #541
 MOE2019            2D

 37 40  0  0  1  0  0  0  0  0999 V2000
    3.4992   -1.2833    0.0000 C   0  0  0  0  0  0  0  0  0  1  0  0
    4.9992   -1.2762    0.0000 C   0  0  0  0  0  0  0  0  0  2  0  0
    5.7430    0.0263    0.0000 C   0  0  0  0  0  0  0  0  0  3  0  0
    4.9869    1.3218    0.0000 C   0  0  0  0  0  0  0  0  0  4  0  0
    3.4870    1.3147    0.0000 C   0  0  0  0  0  0  0  0  0  5  0  0
    2.7431    0.0122    0.0000 C   0  0  0  0  0  0  0  0  0  6  0  0
    1.2431    0.0051    0.0000 C   0  0  0  0  0  0  0  0  0  7  0  0
    0.4870    1.3006    0.0000 C   0  0  0  0  0  0  0  0  0  8  0  0
    1.2309    2.6032    0.0000 C   0  0  0  0  0  0  0  0  0  9  0  0
    0.4748    3.8987    0.0000 O   0  0  0  0  0  0  0  0  0 10  0  0
    2.7309    2.6102    0.0000 O   0  0  0  0  0  0  0  0  0 11  0  0
    2.9041   -2.3253    0.0000 H   0  0  0  0  0  0  0  0  0  0  0  0
    7.2117   -0.2787    0.0000 O   0  0  0  0  0  0  0  0  0  0  0  0
    7.3755   -1.7697    0.0000 C   0  0  1  0  0  0  0  0  0  0  0  0
    6.0081   -2.3862    0.0000 C   0  0  0  0  0  0  0  0  0  0  0  0
    8.6781   -2.5136    0.0000 C   0  0  0  0  0  0  0  0  0  0  0  0
    9.4220   -1.2110    0.0000 C   0  0  0  0  0  0  0  0  0  0  0  0
    9.9806   -3.2575    0.0000 C   0  0  0  0  0  0  0  0  0  0  0  0
    7.9342   -3.8161    0.0000 O   0  0  0  0  0  0  0  0  0  0  0  0
    5.7308    2.6244    0.0000 O   0  0  0  0  0  0  0  0  0  0  0  0
    7.2308    2.6314    0.0000 C   0  0  1  0  0  0  0  0  0  0  0  0
    7.9747    3.9340    0.0000 C   0  0  1  0  0  0  0  0  0  0  0  0
    9.4747    3.9410    0.0000 C   0  0  2  0  0  0  0  0  0  0  0  0
   10.2308    2.6455    0.0000 C   0  0  1  0  0  0  0  0  0  0  0  0
    9.4869    1.3430    0.0000 C   0  0  2  0  0  0  0  0  0  0  0  0
    7.9869    1.3359    0.0000 O   0  0  0  0  0  0  0  0  0  0  0  0
   10.2430    0.0475    0.0000 C   0  0  0  0  0  0  0  0  0  0  0  0
   11.7430    0.0545    0.0000 O   0  0  0  0  0  0  0  0  0  0  0  0
   11.7308    2.6526    0.0000 O   0  0  0  0  0  0  0  0  0  0  0  0
   10.2186    5.2436    0.0000 O   0  0  0  0  0  0  0  0  0  0  0  0
    7.2186    5.2295    0.0000 O   0  0  0  0  0  0  0  0  0  0  0  0
   -1.0130    1.2936    0.0000 C   0  0  0  0  0  0  0  0  0  0  0  0
   -1.0059   -0.2064    0.0000 C   0  0  0  0  0  0  0  0  0  0  0  0
   -1.0200    2.7936    0.0000 C   0  0  0  0  0  0  0  0  0  0  0  0
   -2.5130    1.2865    0.0000 C   0  0  0  0  0  0  0  0  0  0  0  0
   -3.2569   -0.0160    0.0000 C   0  0  0  0  0  0  0  0  0  0  0  0
    0.6480   -1.0369    0.0000 H   0  0  0  0  0  0  0  0  0  0  0  0
  1  2  2  0  0  0  0
  1  6  1  0  0  0  0
  2  3  1  0  0  0  0
  3  4  2  0  0  0  0
  4  5  1  0  0  0  0
  5  6  2  0  0  0  0
  5 11  1  0  0  0  0
  6  7  1  0  0  0  0
  7  8  2  0  0  0  0
  8  9  1  0  0  0  0
  9 10  2  0  0  0  0
  9 11  1  0  0  0  0
  1 12  1  0  0  0  0
 13 14  1  0  0  0  0
 14 15  1  0  0  0  0
 14 16  1  6  0  0  0
 16 17  1  0  0  0  0
 16 18  1  0  0  0  0
 16 19  1  0  0  0  0
  2 15  1  0  0  0  0
  3 13  1  0  0  0  0
 21 20  1  6  0  0  0
 21 22  1  0  0  0  0
 21 26  1  0  0  0  0
 22 23  1  0  0  0  0
 22 31  1  1  0  0  0
 23 24  1  0  0  0  0
 23 30  1  6  0  0  0
 24 25  1  0  0  0  0
 24 29  1  1  0  0  0
 25 26  1  0  0  0  0
 25 27  1  6  0  0  0
 27 28  1  0  0  0  0
  4 20  1  0  0  0  0
 32 33  1  0  0  0  0
 32 34  1  0  0  0  0
 32 35  1  0  0  0  0
 35 36  2  0  0  0  0
  8 32  1  0  0  0  0
  7 37  1  0  0  0  0
M  END
> <score_Kier2>
0.516504

$$$$
suggested molecule #542
 MOE2019            2D

 34 37  0  0  1  0  0  0  0  0999 V2000
    3.4992   -1.2833    0.0000 C   0  0  0  0  0  0  0  0  0  1  0  0
    4.9992   -1.2762    0.0000 C   0  0  0  0  0  0  0  0  0  2  0  0
    5.7430    0.0263    0.0000 C   0  0  0  0  0  0  0  0  0  3  0  0
    4.9869    1.3218    0.0000 C   0  0  0  0  0  0  0  0  0  4  0  0
    3.4870    1.3147    0.0000 C   0  0  0  0  0  0  0  0  0  5  0  0
    2.7431    0.0122    0.0000 C   0  0  0  0  0  0  0  0  0  6  0  0
    1.2431    0.0051    0.0000 C   0  0  0  0  0  0  0  0  0  7  0  0
    0.4870    1.3006    0.0000 C   0  0  0  0  0  0  0  0  0  8  0  0
    1.2309    2.6032    0.0000 C   0  0  0  0  0  0  0  0  0  9  0  0
    0.4748    3.8987    0.0000 O   0  0  0  0  0  0  0  0  0 10  0  0
    2.7309    2.6102    0.0000 O   0  0  0  0  0  0  0  0  0 11  0  0
    2.9041   -2.3253    0.0000 H   0  0  0  0  0  0  0  0  0  0  0  0
    7.2117   -0.2787    0.0000 O   0  0  0  0  0  0  0  0  0  0  0  0
    7.3755   -1.7697    0.0000 C   0  0  1  0  0  0  0  0  0  0  0  0
    6.0081   -2.3862    0.0000 C   0  0  0  0  0  0  0  0  0  0  0  0
    8.6781   -2.5136    0.0000 C   0  0  0  0  0  0  0  0  0  0  0  0
    9.4220   -1.2110    0.0000 C   0  0  0  0  0  0  0  0  0  0  0  0
    9.9806   -3.2575    0.0000 C   0  0  0  0  0  0  0  0  0  0  0  0
    7.9342   -3.8161    0.0000 O   0  0  0  0  0  0  0  0  0  0  0  0
    5.7186    5.2224    0.0000 C   0  0  0  0  0  0  0  0  0  0  0  0
    7.2186    5.2295    0.0000 C   0  0  0  0  0  0  0  0  0  0  0  0
    7.9747    3.9340    0.0000 C   0  0  0  0  0  0  0  0  0  0  0  0
    7.2308    2.6314    0.0000 C   0  0  0  0  0  0  0  0  0  0  0  0
    5.7308    2.6244    0.0000 C   0  0  0  0  0  0  0  0  0  0  0  0
    4.9747    3.9198    0.0000 O   0  0  0  0  0  0  0  0  0  0  0  0
    7.9869    1.3359    0.0000 O   0  0  0  0  0  0  0  0  0  0  0  0
    9.4747    3.9410    0.0000 O   0  0  0  0  0  0  0  0  0  0  0  0
    7.9625    6.5320    0.0000 O   0  0  0  0  0  0  0  0  0  0  0  0
   -1.0130    1.2936    0.0000 C   0  0  0  0  0  0  0  0  0  0  0  0
   -1.0059   -0.2064    0.0000 C   0  0  0  0  0  0  0  0  0  0  0  0
   -1.0200    2.7936    0.0000 C   0  0  0  0  0  0  0  0  0  0  0  0
   -2.5130    1.2865    0.0000 C   0  0  0  0  0  0  0  0  0  0  0  0
   -3.2569   -0.0160    0.0000 C   0  0  0  0  0  0  0  0  0  0  0  0
    0.6480   -1.0369    0.0000 H   0  0  0  0  0  0  0  0  0  0  0  0
  1  2  2  0  0  0  0
  1  6  1  0  0  0  0
  2  3  1  0  0  0  0
  3  4  2  0  0  0  0
  4  5  1  0  0  0  0
  5  6  2  0  0  0  0
  5 11  1  0  0  0  0
  6  7  1  0  0  0  0
  7  8  2  0  0  0  0
  8  9  1  0  0  0  0
  9 10  2  0  0  0  0
  9 11  1  0  0  0  0
  1 12  1  0  0  0  0
 13 14  1  0  0  0  0
 14 15  1  0  0  0  0
 14 16  1  6  0  0  0
 16 17  1  0  0  0  0
 16 18  1  0  0  0  0
 16 19  1  0  0  0  0
  2 15  1  0  0  0  0
  3 13  1  0  0  0  0
 20 21  1  0  0  0  0
 20 25  1  0  0  0  0
 21 22  1  0  0  0  0
 21 28  1  0  0  0  0
 22 23  1  0  0  0  0
 22 27  1  0  0  0  0
 23 24  1  0  0  0  0
 23 26  1  0  0  0  0
 24 25  1  0  0  0  0
  4 24  1  0  0  0  0
 29 30  1  0  0  0  0
 29 31  1  0  0  0  0
 29 32  1  0  0  0  0
 32 33  2  0  0  0  0
  8 29  1  0  0  0  0
  7 34  1  0  0  0  0
M  END
> <score_Kier2>
0.516484

$$$$
suggested molecule #543
 MOE2019            2D

 47 51  0  0  1  0  0  0  0  0999 V2000
    3.4992   -1.2833    0.0000 C   0  0  0  0  0  0  0  0  0  1  0  0
    4.9992   -1.2762    0.0000 C   0  0  0  0  0  0  0  0  0  2  0  0
    5.7430    0.0263    0.0000 C   0  0  0  0  0  0  0  0  0  3  0  0
    4.9869    1.3218    0.0000 C   0  0  0  0  0  0  0  0  0  4  0  0
    3.4870    1.3147    0.0000 C   0  0  0  0  0  0  0  0  0  5  0  0
    2.7431    0.0122    0.0000 C   0  0  0  0  0  0  0  0  0  6  0  0
    1.2431    0.0051    0.0000 C   0  0  0  0  0  0  0  0  0  7  0  0
    0.4870    1.3006    0.0000 C   0  0  0  0  0  0  0  0  0  8  0  0
    1.2309    2.6032    0.0000 C   0  0  0  0  0  0  0  0  0  9  0  0
    0.4748    3.8987    0.0000 O   0  0  0  0  0  0  0  0  0 10  0  0
    2.7309    2.6102    0.0000 O   0  0  0  0  0  0  0  0  0 11  0  0
    2.9041   -2.3253    0.0000 H   0  0  0  0  0  0  0  0  0  0  0  0
    7.2117   -0.2787    0.0000 O   0  0  0  0  0  0  0  0  0  0  0  0
    7.3755   -1.7697    0.0000 C   0  0  1  0  0  0  0  0  0  0  0  0
    6.0081   -2.3862    0.0000 C   0  0  0  0  0  0  0  0  0  0  0  0
    8.6781   -2.5136    0.0000 C   0  0  0  0  0  0  0  0  0  0  0  0
    9.4220   -1.2110    0.0000 C   0  0  0  0  0  0  0  0  0  0  0  0
    7.9342   -3.8161    0.0000 C   0  0  0  0  0  0  0  0  0  0  0  0
    9.9806   -3.2575    0.0000 O   0  0  0  0  0  0  0  0  0  0  0  0
    5.9788    3.0585    0.0000 C   0  0  0  0  0  0  0  0  0  0  0  0
    7.4788    3.0656    0.0000 C   0  0  0  0  0  0  0  0  0  0  0  0
    8.2226    4.3681    0.0000 C   0  0  0  0  0  0  0  0  0  0  0  0
    7.4665    5.6636    0.0000 C   0  0  0  0  0  0  0  0  0  0  0  0
    5.9666    5.6566    0.0000 C   0  0  0  0  0  0  0  0  0  0  0  0
    5.2227    4.3540    0.0000 O   0  0  0  0  0  0  0  0  0  0  0  0
    5.2105    6.9521    0.0000 C   0  0  0  0  0  0  0  0  0  0  0  0
    5.9543    8.2546    0.0000 O   0  0  0  0  0  0  0  0  0  0  0  0
    8.2104    6.9662    0.0000 O   0  0  0  0  0  0  0  0  0  0  0  0
    9.7226    4.3752    0.0000 O   0  0  0  0  0  0  0  0  0  0  0  0
    8.2349    1.7701    0.0000 O   0  0  0  0  0  0  0  0  0  0  0  0
    9.7348    1.7772    0.0000 C   0  0  0  0  0  0  0  0  0  0  0  0
   10.4910    0.4817    0.0000 C   0  0  0  0  0  0  0  0  0  0  0  0
   11.9909    0.4887    0.0000 C   0  0  0  0  0  0  0  0  0  0  0  0
   12.7348    1.7913    0.0000 C   0  0  0  0  0  0  0  0  0  0  0  0
   11.9787    3.0868    0.0000 C   0  0  0  0  0  0  0  0  0  0  0  0
   10.4787    3.0797    0.0000 O   0  0  0  0  0  0  0  0  0  0  0  0
   12.7226    4.3893    0.0000 C   0  0  0  0  0  0  0  0  0  0  0  0
   14.2226    4.3964    0.0000 O   0  0  0  0  0  0  0  0  0  0  0  0
   14.2348    1.7983    0.0000 O   0  0  0  0  0  0  0  0  0  0  0  0
   12.7470   -0.8068    0.0000 O   0  0  0  0  0  0  0  0  0  0  0  0
    9.7471   -0.8209    0.0000 O   0  0  0  0  0  0  0  0  0  0  0  0
   -1.0130    1.2936    0.0000 C   0  0  0  0  0  0  0  0  0  0  0  0
   -1.0059   -0.2064    0.0000 C   0  0  0  0  0  0  0  0  0  0  0  0
   -1.0200    2.7936    0.0000 C   0  0  0  0  0  0  0  0  0  0  0  0
   -2.5130    1.2865    0.0000 C   0  0  0  0  0  0  0  0  0  0  0  0
   -3.2569   -0.0160    0.0000 C   0  0  0  0  0  0  0  0  0  0  0  0
    0.6480   -1.0369    0.0000 H   0  0  0  0  0  0  0  0  0  0  0  0
  1  2  2  0  0  0  0
  1  6  1  0  0  0  0
  2  3  1  0  0  0  0
  3  4  2  0  0  0  0
  4  5  1  0  0  0  0
  5  6  2  0  0  0  0
  5 11  1  0  0  0  0
  6  7  1  0  0  0  0
  7  8  2  0  0  0  0
  8  9  1  0  0  0  0
  9 10  2  0  0  0  0
  9 11  1  0  0  0  0
  1 12  1  0  0  0  0
 13 14  1  0  0  0  0
 14 15  1  0  0  0  0
 14 16  1  6  0  0  0
 16 17  1  0  0  0  0
 16 18  1  0  0  0  0
 16 19  1  0  0  0  0
  2 15  1  0  0  0  0
  3 13  1  0  0  0  0
 20 21  1  0  0  0  0
 20 25  1  0  0  0  0
 21 22  1  0  0  0  0
 21 30  1  0  0  0  0
 22 23  1  0  0  0  0
 22 29  1  0  0  0  0
 23 24  1  0  0  0  0
 23 28  1  0  0  0  0
 24 25  1  0  0  0  0
 24 26  1  0  0  0  0
 26 27  1  0  0  0  0
 30 31  1  0  0  0  0
 31 32  1  0  0  0  0
 31 36  1  0  0  0  0
 32 33  1  0  0  0  0
 32 41  1  0  0  0  0
 33 34  1  0  0  0  0
 33 40  1  0  0  0  0
 34 35  1  0  0  0  0
 34 39  1  0  0  0  0
 35 36  1  0  0  0  0
 35 37  1  0  0  0  0
 37 38  1  0  0  0  0
  4 20  1  0  0  0  0
 42 43  1  0  0  0  0
 42 44  1  0  0  0  0
 42 45  1  0  0  0  0
 45 46  2  0  0  0  0
  8 42  1  0  0  0  0
  7 47  1  0  0  0  0
M  END
> <score_Kier1>
0.517716

$$$$
suggested molecule #544
 MOE2019            2D

 47 51  0  0  1  0  0  0  0  0999 V2000
    3.4992   -1.2833    0.0000 C   0  0  0  0  0  0  0  0  0  1  0  0
    4.9992   -1.2762    0.0000 C   0  0  0  0  0  0  0  0  0  2  0  0
    5.7430    0.0263    0.0000 C   0  0  0  0  0  0  0  0  0  3  0  0
    4.9869    1.3218    0.0000 C   0  0  0  0  0  0  0  0  0  4  0  0
    3.4870    1.3147    0.0000 C   0  0  0  0  0  0  0  0  0  5  0  0
    2.7431    0.0122    0.0000 C   0  0  0  0  0  0  0  0  0  6  0  0
    1.2431    0.0051    0.0000 C   0  0  0  0  0  0  0  0  0  7  0  0
    0.4870    1.3006    0.0000 C   0  0  0  0  0  0  0  0  0  8  0  0
    1.2309    2.6032    0.0000 C   0  0  0  0  0  0  0  0  0  9  0  0
    0.4748    3.8987    0.0000 O   0  0  0  0  0  0  0  0  0 10  0  0
    2.7309    2.6102    0.0000 O   0  0  0  0  0  0  0  0  0 11  0  0
    2.9041   -2.3253    0.0000 H   0  0  0  0  0  0  0  0  0  0  0  0
    7.2117   -0.2787    0.0000 O   0  0  0  0  0  0  0  0  0  0  0  0
    7.3755   -1.7697    0.0000 C   0  0  1  0  0  0  0  0  0  0  0  0
    6.0081   -2.3862    0.0000 C   0  0  0  0  0  0  0  0  0  0  0  0
    8.6781   -2.5136    0.0000 C   0  0  0  0  0  0  0  0  0  0  0  0
    9.4220   -1.2110    0.0000 C   0  0  0  0  0  0  0  0  0  0  0  0
    7.9342   -3.8161    0.0000 C   0  0  0  0  0  0  0  0  0  0  0  0
    9.9806   -3.2575    0.0000 O   0  0  0  0  0  0  0  0  0  0  0  0
    5.9788    3.0585    0.0000 C   0  0  0  0  0  0  0  0  0  0  0  0
    7.4788    3.0656    0.0000 C   0  0  0  0  0  0  0  0  0  0  0  0
    8.2226    4.3681    0.0000 C   0  0  0  0  0  0  0  0  0  0  0  0
    7.4665    5.6636    0.0000 C   0  0  0  0  0  0  0  0  0  0  0  0
    5.9666    5.6566    0.0000 C   0  0  0  0  0  0  0  0  0  0  0  0
    5.2227    4.3540    0.0000 O   0  0  0  0  0  0  0  0  0  0  0  0
    5.2105    6.9521    0.0000 C   0  0  0  0  0  0  0  0  0  0  0  0
    5.9543    8.2546    0.0000 O   0  0  0  0  0  0  0  0  0  0  0  0
    8.2104    6.9662    0.0000 O   0  0  0  0  0  0  0  0  0  0  0  0
    9.7226    4.3752    0.0000 O   0  0  0  0  0  0  0  0  0  0  0  0
    8.2349    1.7701    0.0000 O   0  0  0  0  0  0  0  0  0  0  0  0
    9.7348    1.7772    0.0000 C   0  0  0  0  0  0  0  0  0  0  0  0
   10.4910    0.4817    0.0000 C   0  0  0  0  0  0  0  0  0  0  0  0
   11.9909    0.4887    0.0000 C   0  0  0  0  0  0  0  0  0  0  0  0
   12.7348    1.7913    0.0000 C   0  0  0  0  0  0  0  0  0  0  0  0
   11.9787    3.0868    0.0000 C   0  0  0  0  0  0  0  0  0  0  0  0
   10.4787    3.0797    0.0000 O   0  0  0  0  0  0  0  0  0  0  0  0
   12.7226    4.3893    0.0000 C   0  0  0  0  0  0  0  0  0  0  0  0
   14.2226    4.3964    0.0000 O   0  0  0  0  0  0  0  0  0  0  0  0
   14.2348    1.7983    0.0000 O   0  0  0  0  0  0  0  0  0  0  0  0
   12.7470   -0.8068    0.0000 O   0  0  0  0  0  0  0  0  0  0  0  0
    9.7471   -0.8209    0.0000 O   0  0  0  0  0  0  0  0  0  0  0  0
   -1.0130    1.2936    0.0000 C   0  0  0  0  0  0  0  0  0  0  0  0
   -1.0059   -0.2064    0.0000 C   0  0  0  0  0  0  0  0  0  0  0  0
   -1.0200    2.7936    0.0000 C   0  0  0  0  0  0  0  0  0  0  0  0
   -2.5130    1.2865    0.0000 C   0  0  0  0  0  0  0  0  0  0  0  0
   -3.2569   -0.0160    0.0000 C   0  0  0  0  0  0  0  0  0  0  0  0
    0.6480   -1.0369    0.0000 H   0  0  0  0  0  0  0  0  0  0  0  0
  1  2  2  0  0  0  0
  1  6  1  0  0  0  0
  2  3  1  0  0  0  0
  3  4  2  0  0  0  0
  4  5  1  0  0  0  0
  5  6  2  0  0  0  0
  5 11  1  0  0  0  0
  6  7  1  0  0  0  0
  7  8  2  0  0  0  0
  8  9  1  0  0  0  0
  9 10  2  0  0  0  0
  9 11  1  0  0  0  0
  1 12  1  0  0  0  0
 13 14  1  0  0  0  0
 14 15  1  0  0  0  0
 14 16  1  6  0  0  0
 16 17  1  0  0  0  0
 16 18  1  0  0  0  0
 16 19  1  0  0  0  0
  2 15  1  0  0  0  0
  3 13  1  0  0  0  0
 20 21  1  0  0  0  0
 20 25  1  0  0  0  0
 21 22  1  0  0  0  0
 21 30  1  0  0  0  0
 22 23  1  0  0  0  0
 22 29  1  0  0  0  0
 23 24  1  0  0  0  0
 23 28  1  0  0  0  0
 24 25  1  0  0  0  0
 24 26  1  0  0  0  0
 26 27  1  0  0  0  0
 30 31  1  0  0  0  0
 31 32  1  0  0  0  0
 31 36  1  0  0  0  0
 32 33  1  0  0  0  0
 32 41  1  0  0  0  0
 33 34  1  0  0  0  0
 33 40  1  0  0  0  0
 34 35  1  0  0  0  0
 34 39  1  0  0  0  0
 35 36  1  0  0  0  0
 35 37  1  0  0  0  0
 37 38  1  0  0  0  0
  4 20  1  0  0  0  0
 42 43  1  0  0  0  0
 42 44  1  0  0  0  0
 42 45  1  0  0  0  0
 45 46  2  0  0  0  0
  8 42  1  0  0  0  0
  7 47  1  0  0  0  0
M  END
> <score_Kier2>
0.516529

$$$$
suggested molecule #545
 MOE2019            2D

 47 51  0  0  1  0  0  0  0  0999 V2000
    3.4992   -1.2833    0.0000 C   0  0  0  0  0  0  0  0  0  1  0  0
    4.9992   -1.2762    0.0000 C   0  0  0  0  0  0  0  0  0  2  0  0
    5.7430    0.0263    0.0000 C   0  0  0  0  0  0  0  0  0  3  0  0
    4.9869    1.3218    0.0000 C   0  0  0  0  0  0  0  0  0  4  0  0
    3.4870    1.3147    0.0000 C   0  0  0  0  0  0  0  0  0  5  0  0
    2.7431    0.0122    0.0000 C   0  0  0  0  0  0  0  0  0  6  0  0
    1.2431    0.0051    0.0000 C   0  0  0  0  0  0  0  0  0  7  0  0
    0.4870    1.3006    0.0000 C   0  0  0  0  0  0  0  0  0  8  0  0
    1.2309    2.6032    0.0000 C   0  0  0  0  0  0  0  0  0  9  0  0
    0.4748    3.8987    0.0000 O   0  0  0  0  0  0  0  0  0 10  0  0
    2.7309    2.6102    0.0000 O   0  0  0  0  0  0  0  0  0 11  0  0
    2.9041   -2.3253    0.0000 H   0  0  0  0  0  0  0  0  0  0  0  0
    7.2117   -0.2787    0.0000 O   0  0  0  0  0  0  0  0  0  0  0  0
    7.3755   -1.7697    0.0000 C   0  0  1  0  0  0  0  0  0  0  0  0
    6.0081   -2.3862    0.0000 C   0  0  0  0  0  0  0  0  0  0  0  0
    8.6781   -2.5136    0.0000 C   0  0  0  0  0  0  0  0  0  0  0  0
    9.4220   -1.2110    0.0000 C   0  0  0  0  0  0  0  0  0  0  0  0
    7.9342   -3.8161    0.0000 C   0  0  0  0  0  0  0  0  0  0  0  0
    9.9806   -3.2575    0.0000 O   0  0  0  0  0  0  0  0  0  0  0  0
    5.9788    3.0585    0.0000 C   0  0  0  0  0  0  0  0  0  0  0  0
    7.4788    3.0656    0.0000 C   0  0  0  0  0  0  0  0  0  0  0  0
    8.2226    4.3681    0.0000 C   0  0  0  0  0  0  0  0  0  0  0  0
    7.4665    5.6636    0.0000 C   0  0  0  0  0  0  0  0  0  0  0  0
    5.9666    5.6566    0.0000 C   0  0  0  0  0  0  0  0  0  0  0  0
    5.2227    4.3540    0.0000 O   0  0  0  0  0  0  0  0  0  0  0  0
    5.2105    6.9521    0.0000 C   0  0  0  0  0  0  0  0  0  0  0  0
    5.9543    8.2546    0.0000 O   0  0  0  0  0  0  0  0  0  0  0  0
    8.2104    6.9662    0.0000 O   0  0  0  0  0  0  0  0  0  0  0  0
    9.7226    4.3752    0.0000 O   0  0  0  0  0  0  0  0  0  0  0  0
    8.2349    1.7701    0.0000 O   0  0  0  0  0  0  0  0  0  0  0  0
    9.7348    1.7772    0.0000 C   0  0  0  0  0  0  0  0  0  0  0  0
   10.4910    0.4817    0.0000 C   0  0  0  0  0  0  0  0  0  0  0  0
   11.9909    0.4887    0.0000 C   0  0  0  0  0  0  0  0  0  0  0  0
   12.7348    1.7913    0.0000 C   0  0  0  0  0  0  0  0  0  0  0  0
   11.9787    3.0868    0.0000 C   0  0  0  0  0  0  0  0  0  0  0  0
   10.4787    3.0797    0.0000 O   0  0  0  0  0  0  0  0  0  0  0  0
   12.7226    4.3893    0.0000 C   0  0  0  0  0  0  0  0  0  0  0  0
   14.2226    4.3964    0.0000 O   0  0  0  0  0  0  0  0  0  0  0  0
   14.2348    1.7983    0.0000 O   0  0  0  0  0  0  0  0  0  0  0  0
   12.7470   -0.8068    0.0000 O   0  0  0  0  0  0  0  0  0  0  0  0
    9.7471   -0.8209    0.0000 O   0  0  0  0  0  0  0  0  0  0  0  0
   -1.0130    1.2936    0.0000 C   0  0  0  0  0  0  0  0  0  0  0  0
   -1.0059   -0.2064    0.0000 C   0  0  0  0  0  0  0  0  0  0  0  0
   -1.0200    2.7936    0.0000 C   0  0  0  0  0  0  0  0  0  0  0  0
   -2.5130    1.2865    0.0000 C   0  0  0  0  0  0  0  0  0  0  0  0
   -3.2569   -0.0160    0.0000 C   0  0  0  0  0  0  0  0  0  0  0  0
    0.6480   -1.0369    0.0000 H   0  0  0  0  0  0  0  0  0  0  0  0
  1  2  2  0  0  0  0
  1  6  1  0  0  0  0
  2  3  1  0  0  0  0
  3  4  2  0  0  0  0
  4  5  1  0  0  0  0
  5  6  2  0  0  0  0
  5 11  1  0  0  0  0
  6  7  1  0  0  0  0
  7  8  2  0  0  0  0
  8  9  1  0  0  0  0
  9 10  2  0  0  0  0
  9 11  1  0  0  0  0
  1 12  1  0  0  0  0
 13 14  1  0  0  0  0
 14 15  1  0  0  0  0
 14 16  1  6  0  0  0
 16 17  1  0  0  0  0
 16 18  1  0  0  0  0
 16 19  1  0  0  0  0
  2 15  1  0  0  0  0
  3 13  1  0  0  0  0
 20 21  1  0  0  0  0
 20 25  1  0  0  0  0
 21 22  1  0  0  0  0
 21 30  1  0  0  0  0
 22 23  1  0  0  0  0
 22 29  1  0  0  0  0
 23 24  1  0  0  0  0
 23 28  1  0  0  0  0
 24 25  1  0  0  0  0
 24 26  1  0  0  0  0
 26 27  1  0  0  0  0
 30 31  1  0  0  0  0
 31 32  1  0  0  0  0
 31 36  1  0  0  0  0
 32 33  1  0  0  0  0
 32 41  1  0  0  0  0
 33 34  1  0  0  0  0
 33 40  1  0  0  0  0
 34 35  1  0  0  0  0
 34 39  1  0  0  0  0
 35 36  1  0  0  0  0
 35 37  1  0  0  0  0
 37 38  1  0  0  0  0
  4 20  1  0  0  0  0
 42 43  1  0  0  0  0
 42 44  1  0  0  0  0
 42 45  1  0  0  0  0
 45 46  2  0  0  0  0
  8 42  1  0  0  0  0
  7 47  1  0  0  0  0
M  END
> <score_KierA2>
0.516713

$$$$
suggested molecule #546
 MOE2019            2D

 47 51  0  0  1  0  0  0  0  0999 V2000
    3.4992   -1.2833    0.0000 C   0  0  0  0  0  0  0  0  0  1  0  0
    4.9992   -1.2762    0.0000 C   0  0  0  0  0  0  0  0  0  2  0  0
    5.7430    0.0263    0.0000 C   0  0  0  0  0  0  0  0  0  3  0  0
    4.9869    1.3218    0.0000 C   0  0  0  0  0  0  0  0  0  4  0  0
    3.4870    1.3147    0.0000 C   0  0  0  0  0  0  0  0  0  5  0  0
    2.7431    0.0122    0.0000 C   0  0  0  0  0  0  0  0  0  6  0  0
    1.2431    0.0051    0.0000 C   0  0  0  0  0  0  0  0  0  7  0  0
    0.4870    1.3006    0.0000 C   0  0  0  0  0  0  0  0  0  8  0  0
    1.2309    2.6032    0.0000 C   0  0  0  0  0  0  0  0  0  9  0  0
    0.4748    3.8987    0.0000 O   0  0  0  0  0  0  0  0  0 10  0  0
    2.7309    2.6102    0.0000 O   0  0  0  0  0  0  0  0  0 11  0  0
    2.9041   -2.3253    0.0000 H   0  0  0  0  0  0  0  0  0  0  0  0
    7.2117   -0.2787    0.0000 O   0  0  0  0  0  0  0  0  0  0  0  0
    7.3755   -1.7697    0.0000 C   0  0  1  0  0  0  0  0  0  0  0  0
    6.0081   -2.3862    0.0000 C   0  0  0  0  0  0  0  0  0  0  0  0
    8.6781   -2.5136    0.0000 C   0  0  0  0  0  0  0  0  0  0  0  0
    9.4220   -1.2110    0.0000 C   0  0  0  0  0  0  0  0  0  0  0  0
    7.9342   -3.8161    0.0000 C   0  0  0  0  0  0  0  0  0  0  0  0
    9.9806   -3.2575    0.0000 O   0  0  0  0  0  0  0  0  0  0  0  0
    5.7308    2.6244    0.0000 C   0  0  0  0  0  0  0  0  0  0  0  0
    7.2308    2.6314    0.0000 C   0  0  1  0  0  0  0  0  0  0  0  0
    7.9747    3.9340    0.0000 C   0  0  2  0  0  0  0  0  0  0  0  0
    7.2186    5.2295    0.0000 C   0  0  1  0  0  0  0  0  0  0  0  0
    5.7186    5.2224    0.0000 C   0  0  2  0  0  0  0  0  0  0  0  0
    4.9747    3.9198    0.0000 O   0  0  0  0  0  0  0  0  0  0  0  0
    4.9625    6.5179    0.0000 C   0  0  0  0  0  0  0  0  0  0  0  0
    3.4625    6.5108    0.0000 O   0  0  0  0  0  0  0  0  0  0  0  0
    7.9625    6.5320    0.0000 O   0  0  0  0  0  0  0  0  0  0  0  0
    9.4625    6.5391    0.0000 C   0  0  1  0  0  0  0  0  0  0  0  0
   10.2063    7.8416    0.0000 C   0  0  1  0  0  0  0  0  0  0  0  0
   11.7063    7.8487    0.0000 C   0  0  2  0  0  0  0  0  0  0  0  0
   12.4624    6.5532    0.0000 C   0  0  1  0  0  0  0  0  0  0  0  0
   11.7185    5.2506    0.0000 C   0  0  2  0  0  0  0  0  0  0  0  0
   10.2186    5.2436    0.0000 O   0  0  0  0  0  0  0  0  0  0  0  0
   12.4746    3.9551    0.0000 C   0  0  0  0  0  0  0  0  0  0  0  0
   13.9746    3.9622    0.0000 O   0  0  0  0  0  0  0  0  0  0  0  0
   13.9624    6.5602    0.0000 O   0  0  0  0  0  0  0  0  0  0  0  0
   12.4502    9.1512    0.0000 O   0  0  0  0  0  0  0  0  0  0  0  0
    9.4502    9.1371    0.0000 O   0  0  0  0  0  0  0  0  0  0  0  0
    9.4747    3.9410    0.0000 O   0  0  0  0  0  0  0  0  0  0  0  0
    7.9869    1.3359    0.0000 O   0  0  0  0  0  0  0  0  0  0  0  0
   -1.0130    1.2936    0.0000 C   0  0  0  0  0  0  0  0  0  0  0  0
   -1.0059   -0.2064    0.0000 C   0  0  0  0  0  0  0  0  0  0  0  0
   -1.0200    2.7936    0.0000 C   0  0  0  0  0  0  0  0  0  0  0  0
   -2.5130    1.2865    0.0000 C   0  0  0  0  0  0  0  0  0  0  0  0
   -3.2569   -0.0160    0.0000 C   0  0  0  0  0  0  0  0  0  0  0  0
    0.6480   -1.0369    0.0000 H   0  0  0  0  0  0  0  0  0  0  0  0
  1  2  2  0  0  0  0
  1  6  1  0  0  0  0
  2  3  1  0  0  0  0
  3  4  2  0  0  0  0
  4  5  1  0  0  0  0
  5  6  2  0  0  0  0
  5 11  1  0  0  0  0
  6  7  1  0  0  0  0
  7  8  2  0  0  0  0
  8  9  1  0  0  0  0
  9 10  2  0  0  0  0
  9 11  1  0  0  0  0
  1 12  1  0  0  0  0
 13 14  1  0  0  0  0
 14 15  1  0  0  0  0
 14 16  1  6  0  0  0
 16 17  1  0  0  0  0
 16 18  1  0  0  0  0
 16 19  1  0  0  0  0
  2 15  1  0  0  0  0
  3 13  1  0  0  0  0
 20 21  1  0  0  0  0
 20 25  1  0  0  0  0
 21 22  1  0  0  0  0
 21 41  1  1  0  0  0
 22 23  1  0  0  0  0
 22 40  1  6  0  0  0
 23 24  1  0  0  0  0
 23 28  1  1  0  0  0
 24 25  1  0  0  0  0
 24 26  1  6  0  0  0
 26 27  1  0  0  0  0
 29 28  1  1  0  0  0
 29 30  1  0  0  0  0
 29 34  1  0  0  0  0
 30 31  1  0  0  0  0
 30 39  1  6  0  0  0
 31 32  1  0  0  0  0
 31 38  1  1  0  0  0
 32 33  1  0  0  0  0
 32 37  1  6  0  0  0
 33 34  1  0  0  0  0
 33 35  1  1  0  0  0
 35 36  1  0  0  0  0
  4 20  1  0  0  0  0
 42 43  1  0  0  0  0
 42 44  1  0  0  0  0
 42 45  1  0  0  0  0
 45 46  2  0  0  0  0
  8 42  1  0  0  0  0
  7 47  1  0  0  0  0
M  END
> <score_Kier1>
0.517716

$$$$
suggested molecule #547
 MOE2019            2D

 47 51  0  0  1  0  0  0  0  0999 V2000
    3.4992   -1.2833    0.0000 C   0  0  0  0  0  0  0  0  0  1  0  0
    4.9992   -1.2762    0.0000 C   0  0  0  0  0  0  0  0  0  2  0  0
    5.7430    0.0263    0.0000 C   0  0  0  0  0  0  0  0  0  3  0  0
    4.9869    1.3218    0.0000 C   0  0  0  0  0  0  0  0  0  4  0  0
    3.4870    1.3147    0.0000 C   0  0  0  0  0  0  0  0  0  5  0  0
    2.7431    0.0122    0.0000 C   0  0  0  0  0  0  0  0  0  6  0  0
    1.2431    0.0051    0.0000 C   0  0  0  0  0  0  0  0  0  7  0  0
    0.4870    1.3006    0.0000 C   0  0  0  0  0  0  0  0  0  8  0  0
    1.2309    2.6032    0.0000 C   0  0  0  0  0  0  0  0  0  9  0  0
    0.4748    3.8987    0.0000 O   0  0  0  0  0  0  0  0  0 10  0  0
    2.7309    2.6102    0.0000 O   0  0  0  0  0  0  0  0  0 11  0  0
    2.9041   -2.3253    0.0000 H   0  0  0  0  0  0  0  0  0  0  0  0
    7.2117   -0.2787    0.0000 O   0  0  0  0  0  0  0  0  0  0  0  0
    7.3755   -1.7697    0.0000 C   0  0  1  0  0  0  0  0  0  0  0  0
    6.0081   -2.3862    0.0000 C   0  0  0  0  0  0  0  0  0  0  0  0
    8.6781   -2.5136    0.0000 C   0  0  0  0  0  0  0  0  0  0  0  0
    9.4220   -1.2110    0.0000 C   0  0  0  0  0  0  0  0  0  0  0  0
    7.9342   -3.8161    0.0000 C   0  0  0  0  0  0  0  0  0  0  0  0
    9.9806   -3.2575    0.0000 O   0  0  0  0  0  0  0  0  0  0  0  0
    5.7308    2.6244    0.0000 C   0  0  0  0  0  0  0  0  0  0  0  0
    7.2308    2.6314    0.0000 C   0  0  1  0  0  0  0  0  0  0  0  0
    7.9747    3.9340    0.0000 C   0  0  2  0  0  0  0  0  0  0  0  0
    7.2186    5.2295    0.0000 C   0  0  1  0  0  0  0  0  0  0  0  0
    5.7186    5.2224    0.0000 C   0  0  2  0  0  0  0  0  0  0  0  0
    4.9747    3.9198    0.0000 O   0  0  0  0  0  0  0  0  0  0  0  0
    4.9625    6.5179    0.0000 C   0  0  0  0  0  0  0  0  0  0  0  0
    3.4625    6.5108    0.0000 O   0  0  0  0  0  0  0  0  0  0  0  0
    7.9625    6.5320    0.0000 O   0  0  0  0  0  0  0  0  0  0  0  0
    9.4625    6.5391    0.0000 C   0  0  1  0  0  0  0  0  0  0  0  0
   10.2063    7.8416    0.0000 C   0  0  1  0  0  0  0  0  0  0  0  0
   11.7063    7.8487    0.0000 C   0  0  2  0  0  0  0  0  0  0  0  0
   12.4624    6.5532    0.0000 C   0  0  1  0  0  0  0  0  0  0  0  0
   11.7185    5.2506    0.0000 C   0  0  2  0  0  0  0  0  0  0  0  0
   10.2186    5.2436    0.0000 O   0  0  0  0  0  0  0  0  0  0  0  0
   12.4746    3.9551    0.0000 C   0  0  0  0  0  0  0  0  0  0  0  0
   13.9746    3.9622    0.0000 O   0  0  0  0  0  0  0  0  0  0  0  0
   13.9624    6.5602    0.0000 O   0  0  0  0  0  0  0  0  0  0  0  0
   12.4502    9.1512    0.0000 O   0  0  0  0  0  0  0  0  0  0  0  0
    9.4502    9.1371    0.0000 O   0  0  0  0  0  0  0  0  0  0  0  0
    9.4747    3.9410    0.0000 O   0  0  0  0  0  0  0  0  0  0  0  0
    7.9869    1.3359    0.0000 O   0  0  0  0  0  0  0  0  0  0  0  0
   -1.0130    1.2936    0.0000 C   0  0  0  0  0  0  0  0  0  0  0  0
   -1.0059   -0.2064    0.0000 C   0  0  0  0  0  0  0  0  0  0  0  0
   -1.0200    2.7936    0.0000 C   0  0  0  0  0  0  0  0  0  0  0  0
   -2.5130    1.2865    0.0000 C   0  0  0  0  0  0  0  0  0  0  0  0
   -3.2569   -0.0160    0.0000 C   0  0  0  0  0  0  0  0  0  0  0  0
    0.6480   -1.0369    0.0000 H   0  0  0  0  0  0  0  0  0  0  0  0
  1  2  2  0  0  0  0
  1  6  1  0  0  0  0
  2  3  1  0  0  0  0
  3  4  2  0  0  0  0
  4  5  1  0  0  0  0
  5  6  2  0  0  0  0
  5 11  1  0  0  0  0
  6  7  1  0  0  0  0
  7  8  2  0  0  0  0
  8  9  1  0  0  0  0
  9 10  2  0  0  0  0
  9 11  1  0  0  0  0
  1 12  1  0  0  0  0
 13 14  1  0  0  0  0
 14 15  1  0  0  0  0
 14 16  1  6  0  0  0
 16 17  1  0  0  0  0
 16 18  1  0  0  0  0
 16 19  1  0  0  0  0
  2 15  1  0  0  0  0
  3 13  1  0  0  0  0
 20 21  1  0  0  0  0
 20 25  1  0  0  0  0
 21 22  1  0  0  0  0
 21 41  1  1  0  0  0
 22 23  1  0  0  0  0
 22 40  1  6  0  0  0
 23 24  1  0  0  0  0
 23 28  1  1  0  0  0
 24 25  1  0  0  0  0
 24 26  1  6  0  0  0
 26 27  1  0  0  0  0
 29 28  1  1  0  0  0
 29 30  1  0  0  0  0
 29 34  1  0  0  0  0
 30 31  1  0  0  0  0
 30 39  1  6  0  0  0
 31 32  1  0  0  0  0
 31 38  1  1  0  0  0
 32 33  1  0  0  0  0
 32 37  1  6  0  0  0
 33 34  1  0  0  0  0
 33 35  1  1  0  0  0
 35 36  1  0  0  0  0
  4 20  1  0  0  0  0
 42 43  1  0  0  0  0
 42 44  1  0  0  0  0
 42 45  1  0  0  0  0
 45 46  2  0  0  0  0
  8 42  1  0  0  0  0
  7 47  1  0  0  0  0
M  END
> <score_Kier2>
0.516529

$$$$
suggested molecule #548
 MOE2019            2D

 47 51  0  0  1  0  0  0  0  0999 V2000
    3.4992   -1.2833    0.0000 C   0  0  0  0  0  0  0  0  0  1  0  0
    4.9992   -1.2762    0.0000 C   0  0  0  0  0  0  0  0  0  2  0  0
    5.7430    0.0263    0.0000 C   0  0  0  0  0  0  0  0  0  3  0  0
    4.9869    1.3218    0.0000 C   0  0  0  0  0  0  0  0  0  4  0  0
    3.4870    1.3147    0.0000 C   0  0  0  0  0  0  0  0  0  5  0  0
    2.7431    0.0122    0.0000 C   0  0  0  0  0  0  0  0  0  6  0  0
    1.2431    0.0051    0.0000 C   0  0  0  0  0  0  0  0  0  7  0  0
    0.4870    1.3006    0.0000 C   0  0  0  0  0  0  0  0  0  8  0  0
    1.2309    2.6032    0.0000 C   0  0  0  0  0  0  0  0  0  9  0  0
    0.4748    3.8987    0.0000 O   0  0  0  0  0  0  0  0  0 10  0  0
    2.7309    2.6102    0.0000 O   0  0  0  0  0  0  0  0  0 11  0  0
    2.9041   -2.3253    0.0000 H   0  0  0  0  0  0  0  0  0  0  0  0
    7.2117   -0.2787    0.0000 O   0  0  0  0  0  0  0  0  0  0  0  0
    7.3755   -1.7697    0.0000 C   0  0  1  0  0  0  0  0  0  0  0  0
    6.0081   -2.3862    0.0000 C   0  0  0  0  0  0  0  0  0  0  0  0
    8.6781   -2.5136    0.0000 C   0  0  0  0  0  0  0  0  0  0  0  0
    9.4220   -1.2110    0.0000 C   0  0  0  0  0  0  0  0  0  0  0  0
    7.9342   -3.8161    0.0000 C   0  0  0  0  0  0  0  0  0  0  0  0
    9.9806   -3.2575    0.0000 O   0  0  0  0  0  0  0  0  0  0  0  0
    5.7308    2.6244    0.0000 C   0  0  0  0  0  0  0  0  0  0  0  0
    7.2308    2.6314    0.0000 C   0  0  1  0  0  0  0  0  0  0  0  0
    7.9747    3.9340    0.0000 C   0  0  2  0  0  0  0  0  0  0  0  0
    7.2186    5.2295    0.0000 C   0  0  1  0  0  0  0  0  0  0  0  0
    5.7186    5.2224    0.0000 C   0  0  2  0  0  0  0  0  0  0  0  0
    4.9747    3.9198    0.0000 O   0  0  0  0  0  0  0  0  0  0  0  0
    4.9625    6.5179    0.0000 C   0  0  0  0  0  0  0  0  0  0  0  0
    3.4625    6.5108    0.0000 O   0  0  0  0  0  0  0  0  0  0  0  0
    7.9625    6.5320    0.0000 O   0  0  0  0  0  0  0  0  0  0  0  0
    9.4625    6.5391    0.0000 C   0  0  1  0  0  0  0  0  0  0  0  0
   10.2063    7.8416    0.0000 C   0  0  1  0  0  0  0  0  0  0  0  0
   11.7063    7.8487    0.0000 C   0  0  2  0  0  0  0  0  0  0  0  0
   12.4624    6.5532    0.0000 C   0  0  1  0  0  0  0  0  0  0  0  0
   11.7185    5.2506    0.0000 C   0  0  2  0  0  0  0  0  0  0  0  0
   10.2186    5.2436    0.0000 O   0  0  0  0  0  0  0  0  0  0  0  0
   12.4746    3.9551    0.0000 C   0  0  0  0  0  0  0  0  0  0  0  0
   13.9746    3.9622    0.0000 O   0  0  0  0  0  0  0  0  0  0  0  0
   13.9624    6.5602    0.0000 O   0  0  0  0  0  0  0  0  0  0  0  0
   12.4502    9.1512    0.0000 O   0  0  0  0  0  0  0  0  0  0  0  0
    9.4502    9.1371    0.0000 O   0  0  0  0  0  0  0  0  0  0  0  0
    9.4747    3.9410    0.0000 O   0  0  0  0  0  0  0  0  0  0  0  0
    7.9869    1.3359    0.0000 O   0  0  0  0  0  0  0  0  0  0  0  0
   -1.0130    1.2936    0.0000 C   0  0  0  0  0  0  0  0  0  0  0  0
   -1.0059   -0.2064    0.0000 C   0  0  0  0  0  0  0  0  0  0  0  0
   -1.0200    2.7936    0.0000 C   0  0  0  0  0  0  0  0  0  0  0  0
   -2.5130    1.2865    0.0000 C   0  0  0  0  0  0  0  0  0  0  0  0
   -3.2569   -0.0160    0.0000 C   0  0  0  0  0  0  0  0  0  0  0  0
    0.6480   -1.0369    0.0000 H   0  0  0  0  0  0  0  0  0  0  0  0
  1  2  2  0  0  0  0
  1  6  1  0  0  0  0
  2  3  1  0  0  0  0
  3  4  2  0  0  0  0
  4  5  1  0  0  0  0
  5  6  2  0  0  0  0
  5 11  1  0  0  0  0
  6  7  1  0  0  0  0
  7  8  2  0  0  0  0
  8  9  1  0  0  0  0
  9 10  2  0  0  0  0
  9 11  1  0  0  0  0
  1 12  1  0  0  0  0
 13 14  1  0  0  0  0
 14 15  1  0  0  0  0
 14 16  1  6  0  0  0
 16 17  1  0  0  0  0
 16 18  1  0  0  0  0
 16 19  1  0  0  0  0
  2 15  1  0  0  0  0
  3 13  1  0  0  0  0
 20 21  1  0  0  0  0
 20 25  1  0  0  0  0
 21 22  1  0  0  0  0
 21 41  1  1  0  0  0
 22 23  1  0  0  0  0
 22 40  1  6  0  0  0
 23 24  1  0  0  0  0
 23 28  1  1  0  0  0
 24 25  1  0  0  0  0
 24 26  1  6  0  0  0
 26 27  1  0  0  0  0
 29 28  1  1  0  0  0
 29 30  1  0  0  0  0
 29 34  1  0  0  0  0
 30 31  1  0  0  0  0
 30 39  1  6  0  0  0
 31 32  1  0  0  0  0
 31 38  1  1  0  0  0
 32 33  1  0  0  0  0
 32 37  1  6  0  0  0
 33 34  1  0  0  0  0
 33 35  1  1  0  0  0
 35 36  1  0  0  0  0
  4 20  1  0  0  0  0
 42 43  1  0  0  0  0
 42 44  1  0  0  0  0
 42 45  1  0  0  0  0
 45 46  2  0  0  0  0
  8 42  1  0  0  0  0
  7 47  1  0  0  0  0
M  END
> <score_KierA2>
0.516713

$$$$
suggested molecule #549
 MOE2019            2D

 35 38  0  0  1  0  0  0  0  0999 V2000
    3.4992   -1.2833    0.0000 C   0  0  0  0  0  0  0  0  0  1  0  0
    4.9992   -1.2762    0.0000 C   0  0  0  0  0  0  0  0  0  2  0  0
    5.7430    0.0263    0.0000 C   0  0  0  0  0  0  0  0  0  3  0  0
    4.9869    1.3218    0.0000 C   0  0  0  0  0  0  0  0  0  4  0  0
    3.4870    1.3147    0.0000 C   0  0  0  0  0  0  0  0  0  5  0  0
    2.7431    0.0122    0.0000 C   0  0  0  0  0  0  0  0  0  6  0  0
    1.2431    0.0051    0.0000 C   0  0  0  0  0  0  0  0  0  7  0  0
    0.4870    1.3006    0.0000 C   0  0  0  0  0  0  0  0  0  8  0  0
    1.2309    2.6032    0.0000 C   0  0  0  0  0  0  0  0  0  9  0  0
    0.4748    3.8987    0.0000 O   0  0  0  0  0  0  0  0  0 10  0  0
    2.7309    2.6102    0.0000 O   0  0  0  0  0  0  0  0  0 11  0  0
    2.9041   -2.3253    0.0000 H   0  0  0  0  0  0  0  0  0  0  0  0
    7.2117   -0.2787    0.0000 O   0  0  0  0  0  0  0  0  0  0  0  0
    7.3755   -1.7697    0.0000 C   0  0  1  0  0  0  0  0  0  0  0  0
    6.0081   -2.3862    0.0000 C   0  0  0  0  0  0  0  0  0  0  0  0
    8.6781   -2.5136    0.0000 C   0  0  0  0  0  0  0  0  0  0  0  0
    9.4220   -1.2110    0.0000 C   0  0  0  0  0  0  0  0  0  0  0  0
    9.9806   -3.2575    0.0000 C   0  0  0  0  0  0  0  0  0  0  0  0
    7.9342   -3.8161    0.0000 O   0  0  0  0  0  0  0  0  0  0  0  0
    4.9625    6.5179    0.0000 C   0  0  0  0  0  0  0  0  0  0  0  0
    5.7186    5.2224    0.0000 C   0  0  1  0  0  0  0  0  0  0  0  0
    7.2186    5.2295    0.0000 C   0  0  1  0  0  0  0  0  0  0  0  0
    7.9747    3.9340    0.0000 C   0  0  2  0  0  0  0  0  0  0  0  0
    7.2308    2.6314    0.0000 C   0  0  2  0  0  0  0  0  0  0  0  0
    5.7308    2.6244    0.0000 C   0  0  0  0  0  0  0  0  0  0  0  0
    4.9747    3.9198    0.0000 O   0  0  0  0  0  0  0  0  0  0  0  0
    7.9869    1.3359    0.0000 O   0  0  0  0  0  0  0  0  0  0  0  0
    9.4747    3.9410    0.0000 O   0  0  0  0  0  0  0  0  0  0  0  0
    7.9625    6.5320    0.0000 O   0  0  0  0  0  0  0  0  0  0  0  0
   -1.0130    1.2936    0.0000 C   0  0  0  0  0  0  0  0  0  0  0  0
   -1.0059   -0.2064    0.0000 C   0  0  0  0  0  0  0  0  0  0  0  0
   -1.0200    2.7936    0.0000 C   0  0  0  0  0  0  0  0  0  0  0  0
   -2.5130    1.2865    0.0000 C   0  0  0  0  0  0  0  0  0  0  0  0
   -3.2569   -0.0160    0.0000 C   0  0  0  0  0  0  0  0  0  0  0  0
    0.6480   -1.0369    0.0000 H   0  0  0  0  0  0  0  0  0  0  0  0
  1  2  2  0  0  0  0
  1  6  1  0  0  0  0
  2  3  1  0  0  0  0
  3  4  2  0  0  0  0
  4  5  1  0  0  0  0
  5  6  2  0  0  0  0
  5 11  1  0  0  0  0
  6  7  1  0  0  0  0
  7  8  2  0  0  0  0
  8  9  1  0  0  0  0
  9 10  2  0  0  0  0
  9 11  1  0  0  0  0
  1 12  1  0  0  0  0
 13 14  1  0  0  0  0
 14 15  1  0  0  0  0
 14 16  1  6  0  0  0
 16 17  1  0  0  0  0
 16 18  1  0  0  0  0
 16 19  1  0  0  0  0
  2 15  1  0  0  0  0
  3 13  1  0  0  0  0
 21 20  1  1  0  0  0
 21 22  1  0  0  0  0
 21 26  1  0  0  0  0
 22 23  1  0  0  0  0
 22 29  1  6  0  0  0
 23 24  1  0  0  0  0
 23 28  1  1  0  0  0
 24 25  1  0  0  0  0
 24 27  1  1  0  0  0
 25 26  1  0  0  0  0
  4 25  1  0  0  0  0
 30 31  1  0  0  0  0
 30 32  1  0  0  0  0
 30 33  1  0  0  0  0
 33 34  2  0  0  0  0
  8 30  1  0  0  0  0
  7 35  1  0  0  0  0
M  END
> <score_Kier1>
0.51772

$$$$
suggested molecule #550
 MOE2019            2D

 35 38  0  0  1  0  0  0  0  0999 V2000
    3.4992   -1.2833    0.0000 C   0  0  0  0  0  0  0  0  0  1  0  0
    4.9992   -1.2762    0.0000 C   0  0  0  0  0  0  0  0  0  2  0  0
    5.7430    0.0263    0.0000 C   0  0  0  0  0  0  0  0  0  3  0  0
    4.9869    1.3218    0.0000 C   0  0  0  0  0  0  0  0  0  4  0  0
    3.4870    1.3147    0.0000 C   0  0  0  0  0  0  0  0  0  5  0  0
    2.7431    0.0122    0.0000 C   0  0  0  0  0  0  0  0  0  6  0  0
    1.2431    0.0051    0.0000 C   0  0  0  0  0  0  0  0  0  7  0  0
    0.4870    1.3006    0.0000 C   0  0  0  0  0  0  0  0  0  8  0  0
    1.2309    2.6032    0.0000 C   0  0  0  0  0  0  0  0  0  9  0  0
    0.4748    3.8987    0.0000 O   0  0  0  0  0  0  0  0  0 10  0  0
    2.7309    2.6102    0.0000 O   0  0  0  0  0  0  0  0  0 11  0  0
    2.9041   -2.3253    0.0000 H   0  0  0  0  0  0  0  0  0  0  0  0
    7.2117   -0.2787    0.0000 O   0  0  0  0  0  0  0  0  0  0  0  0
    7.3755   -1.7697    0.0000 C   0  0  1  0  0  0  0  0  0  0  0  0
    6.0081   -2.3862    0.0000 C   0  0  0  0  0  0  0  0  0  0  0  0
    8.6781   -2.5136    0.0000 C   0  0  0  0  0  0  0  0  0  0  0  0
    9.4220   -1.2110    0.0000 C   0  0  0  0  0  0  0  0  0  0  0  0
    9.9806   -3.2575    0.0000 C   0  0  0  0  0  0  0  0  0  0  0  0
    7.9342   -3.8161    0.0000 O   0  0  0  0  0  0  0  0  0  0  0  0
    4.9625    6.5179    0.0000 C   0  0  0  0  0  0  0  0  0  0  0  0
    5.7186    5.2224    0.0000 C   0  0  1  0  0  0  0  0  0  0  0  0
    7.2186    5.2295    0.0000 C   0  0  1  0  0  0  0  0  0  0  0  0
    7.9747    3.9340    0.0000 C   0  0  2  0  0  0  0  0  0  0  0  0
    7.2308    2.6314    0.0000 C   0  0  2  0  0  0  0  0  0  0  0  0
    5.7308    2.6244    0.0000 C   0  0  0  0  0  0  0  0  0  0  0  0
    4.9747    3.9198    0.0000 O   0  0  0  0  0  0  0  0  0  0  0  0
    7.9869    1.3359    0.0000 O   0  0  0  0  0  0  0  0  0  0  0  0
    9.4747    3.9410    0.0000 O   0  0  0  0  0  0  0  0  0  0  0  0
    7.9625    6.5320    0.0000 O   0  0  0  0  0  0  0  0  0  0  0  0
   -1.0130    1.2936    0.0000 C   0  0  0  0  0  0  0  0  0  0  0  0
   -1.0059   -0.2064    0.0000 C   0  0  0  0  0  0  0  0  0  0  0  0
   -1.0200    2.7936    0.0000 C   0  0  0  0  0  0  0  0  0  0  0  0
   -2.5130    1.2865    0.0000 C   0  0  0  0  0  0  0  0  0  0  0  0
   -3.2569   -0.0160    0.0000 C   0  0  0  0  0  0  0  0  0  0  0  0
    0.6480   -1.0369    0.0000 H   0  0  0  0  0  0  0  0  0  0  0  0
  1  2  2  0  0  0  0
  1  6  1  0  0  0  0
  2  3  1  0  0  0  0
  3  4  2  0  0  0  0
  4  5  1  0  0  0  0
  5  6  2  0  0  0  0
  5 11  1  0  0  0  0
  6  7  1  0  0  0  0
  7  8  2  0  0  0  0
  8  9  1  0  0  0  0
  9 10  2  0  0  0  0
  9 11  1  0  0  0  0
  1 12  1  0  0  0  0
 13 14  1  0  0  0  0
 14 15  1  0  0  0  0
 14 16  1  6  0  0  0
 16 17  1  0  0  0  0
 16 18  1  0  0  0  0
 16 19  1  0  0  0  0
  2 15  1  0  0  0  0
  3 13  1  0  0  0  0
 21 20  1  1  0  0  0
 21 22  1  0  0  0  0
 21 26  1  0  0  0  0
 22 23  1  0  0  0  0
 22 29  1  6  0  0  0
 23 24  1  0  0  0  0
 23 28  1  1  0  0  0
 24 25  1  0  0  0  0
 24 27  1  1  0  0  0
 25 26  1  0  0  0  0
  4 25  1  0  0  0  0
 30 31  1  0  0  0  0
 30 32  1  0  0  0  0
 30 33  1  0  0  0  0
 33 34  2  0  0  0  0
  8 30  1  0  0  0  0
  7 35  1  0  0  0  0
M  END
> <score_Kier2>
0.516538

$$$$
suggested molecule #551
 MOE2019            2D

 35 38  0  0  1  0  0  0  0  0999 V2000
    3.4992   -1.2833    0.0000 C   0  0  0  0  0  0  0  0  0  1  0  0
    4.9992   -1.2762    0.0000 C   0  0  0  0  0  0  0  0  0  2  0  0
    5.7430    0.0263    0.0000 C   0  0  0  0  0  0  0  0  0  3  0  0
    4.9869    1.3218    0.0000 C   0  0  0  0  0  0  0  0  0  4  0  0
    3.4870    1.3147    0.0000 C   0  0  0  0  0  0  0  0  0  5  0  0
    2.7431    0.0122    0.0000 C   0  0  0  0  0  0  0  0  0  6  0  0
    1.2431    0.0051    0.0000 C   0  0  0  0  0  0  0  0  0  7  0  0
    0.4870    1.3006    0.0000 C   0  0  0  0  0  0  0  0  0  8  0  0
    1.2309    2.6032    0.0000 C   0  0  0  0  0  0  0  0  0  9  0  0
    0.4748    3.8987    0.0000 O   0  0  0  0  0  0  0  0  0 10  0  0
    2.7309    2.6102    0.0000 O   0  0  0  0  0  0  0  0  0 11  0  0
    2.9041   -2.3253    0.0000 H   0  0  0  0  0  0  0  0  0  0  0  0
    7.2117   -0.2787    0.0000 O   0  0  0  0  0  0  0  0  0  0  0  0
    7.3755   -1.7697    0.0000 C   0  0  1  0  0  0  0  0  0  0  0  0
    6.0081   -2.3862    0.0000 C   0  0  0  0  0  0  0  0  0  0  0  0
    8.6781   -2.5136    0.0000 C   0  0  0  0  0  0  0  0  0  0  0  0
    9.4220   -1.2110    0.0000 C   0  0  0  0  0  0  0  0  0  0  0  0
    9.9806   -3.2575    0.0000 C   0  0  0  0  0  0  0  0  0  0  0  0
    7.9342   -3.8161    0.0000 O   0  0  0  0  0  0  0  0  0  0  0  0
    4.9625    6.5179    0.0000 C   0  0  0  0  0  0  0  0  0  0  0  0
    5.7186    5.2224    0.0000 C   0  0  1  0  0  0  0  0  0  0  0  0
    7.2186    5.2295    0.0000 C   0  0  1  0  0  0  0  0  0  0  0  0
    7.9747    3.9340    0.0000 C   0  0  2  0  0  0  0  0  0  0  0  0
    7.2308    2.6314    0.0000 C   0  0  2  0  0  0  0  0  0  0  0  0
    5.7308    2.6244    0.0000 C   0  0  0  0  0  0  0  0  0  0  0  0
    4.9747    3.9198    0.0000 O   0  0  0  0  0  0  0  0  0  0  0  0
    7.9869    1.3359    0.0000 O   0  0  0  0  0  0  0  0  0  0  0  0
    9.4747    3.9410    0.0000 O   0  0  0  0  0  0  0  0  0  0  0  0
    7.9625    6.5320    0.0000 O   0  0  0  0  0  0  0  0  0  0  0  0
   -1.0130    1.2936    0.0000 C   0  0  0  0  0  0  0  0  0  0  0  0
   -1.0059   -0.2064    0.0000 C   0  0  0  0  0  0  0  0  0  0  0  0
   -1.0200    2.7936    0.0000 C   0  0  0  0  0  0  0  0  0  0  0  0
   -2.5130    1.2865    0.0000 C   0  0  0  0  0  0  0  0  0  0  0  0
   -3.2569   -0.0160    0.0000 C   0  0  0  0  0  0  0  0  0  0  0  0
    0.6480   -1.0369    0.0000 H   0  0  0  0  0  0  0  0  0  0  0  0
  1  2  2  0  0  0  0
  1  6  1  0  0  0  0
  2  3  1  0  0  0  0
  3  4  2  0  0  0  0
  4  5  1  0  0  0  0
  5  6  2  0  0  0  0
  5 11  1  0  0  0  0
  6  7  1  0  0  0  0
  7  8  2  0  0  0  0
  8  9  1  0  0  0  0
  9 10  2  0  0  0  0
  9 11  1  0  0  0  0
  1 12  1  0  0  0  0
 13 14  1  0  0  0  0
 14 15  1  0  0  0  0
 14 16  1  6  0  0  0
 16 17  1  0  0  0  0
 16 18  1  0  0  0  0
 16 19  1  0  0  0  0
  2 15  1  0  0  0  0
  3 13  1  0  0  0  0
 21 20  1  1  0  0  0
 21 22  1  0  0  0  0
 21 26  1  0  0  0  0
 22 23  1  0  0  0  0
 22 29  1  6  0  0  0
 23 24  1  0  0  0  0
 23 28  1  1  0  0  0
 24 25  1  0  0  0  0
 24 27  1  1  0  0  0
 25 26  1  0  0  0  0
  4 25  1  0  0  0  0
 30 31  1  0  0  0  0
 30 32  1  0  0  0  0
 30 33  1  0  0  0  0
 33 34  2  0  0  0  0
  8 30  1  0  0  0  0
  7 35  1  0  0  0  0
M  END
> <score_KierA2>
0.516722

$$$$
suggested molecule #552
 MOE2019            2D

 46 50  0  0  1  0  0  0  0  0999 V2000
    3.4992   -1.2833    0.0000 C   0  0  0  0  0  0  0  0  0  1  0  0
    4.9992   -1.2762    0.0000 C   0  0  0  0  0  0  0  0  0  2  0  0
    5.7430    0.0263    0.0000 C   0  0  0  0  0  0  0  0  0  3  0  0
    4.9869    1.3218    0.0000 C   0  0  0  0  0  0  0  0  0  4  0  0
    3.4870    1.3147    0.0000 C   0  0  0  0  0  0  0  0  0  5  0  0
    2.7431    0.0122    0.0000 C   0  0  0  0  0  0  0  0  0  6  0  0
    1.2431    0.0051    0.0000 C   0  0  0  0  0  0  0  0  0  7  0  0
    0.4870    1.3006    0.0000 C   0  0  0  0  0  0  0  0  0  8  0  0
    1.2309    2.6032    0.0000 C   0  0  0  0  0  0  0  0  0  9  0  0
    0.4748    3.8987    0.0000 O   0  0  0  0  0  0  0  0  0 10  0  0
    2.7309    2.6102    0.0000 O   0  0  0  0  0  0  0  0  0 11  0  0
    2.9041   -2.3253    0.0000 H   0  0  0  0  0  0  0  0  0  0  0  0
    7.2117   -0.2787    0.0000 O   0  0  0  0  0  0  0  0  0  0  0  0
    7.3755   -1.7697    0.0000 C   0  0  1  0  0  0  0  0  0  0  0  0
    6.0081   -2.3862    0.0000 C   0  0  0  0  0  0  0  0  0  0  0  0
    8.6781   -2.5136    0.0000 C   0  0  0  0  0  0  0  0  0  0  0  0
    9.9806   -3.2575    0.0000 C   0  0  0  0  0  0  0  0  0  0  0  0
    7.9342   -3.8161    0.0000 C   0  0  0  0  0  0  0  0  0  0  0  0
    9.4220   -1.2110    0.0000 O   0  0  0  0  0  0  0  0  0  0  0  0
   12.7226    4.3893    0.0000 C   0  0  0  0  0  0  0  0  0  0  0  0
   11.9787    3.0868    0.0000 C   0  0  1  0  0  0  0  0  0  0  0  0
   12.7348    1.7913    0.0000 C   0  0  1  0  0  0  0  0  0  0  0  0
   11.9909    0.4887    0.0000 C   0  0  2  0  0  0  0  0  0  0  0  0
   10.4910    0.4817    0.0000 C   0  0  2  0  0  0  0  0  0  0  0  0
    9.7348    1.7772    0.0000 C   0  0  1  0  0  0  0  0  0  0  0  0
   10.4787    3.0797    0.0000 O   0  0  0  0  0  0  0  0  0  0  0  0
    8.2349    1.7701    0.0000 O   0  0  0  0  0  0  0  0  0  0  0  0
    7.4788    3.0656    0.0000 C   0  0  2  0  0  0  0  0  0  0  0  0
    8.2226    4.3681    0.0000 C   0  0  2  0  0  0  0  0  0  0  0  0
    7.4665    5.6636    0.0000 C   0  0  1  0  0  0  0  0  0  0  0  0
    5.9666    5.6566    0.0000 C   0  0  2  0  0  0  0  0  0  0  0  0
    5.2227    4.3540    0.0000 O   0  0  0  0  0  0  0  0  0  0  0  0
    5.9788    3.0585    0.0000 C   0  0  0  0  0  0  0  0  0  0  0  0
    5.2105    6.9521    0.0000 C   0  0  0  0  0  0  0  0  0  0  0  0
    5.9543    8.2546    0.0000 O   0  0  0  0  0  0  0  0  0  0  0  0
    8.2104    6.9662    0.0000 O   0  0  0  0  0  0  0  0  0  0  0  0
    9.7226    4.3752    0.0000 O   0  0  0  0  0  0  0  0  0  0  0  0
    9.7471   -0.8209    0.0000 O   0  0  0  0  0  0  0  0  0  0  0  0
   12.7470   -0.8068    0.0000 O   0  0  0  0  0  0  0  0  0  0  0  0
   14.2348    1.7983    0.0000 O   0  0  0  0  0  0  0  0  0  0  0  0
   -1.0130    1.2936    0.0000 C   0  0  0  0  0  0  0  0  0  0  0  0
   -1.0200    2.7936    0.0000 C   0  0  0  0  0  0  0  0  0  0  0  0
   -1.0059   -0.2064    0.0000 C   0  0  0  0  0  0  0  0  0  0  0  0
   -2.5130    1.2865    0.0000 C   0  0  0  0  0  0  0  0  0  0  0  0
   -3.2569   -0.0160    0.0000 C   0  0  0  0  0  0  0  0  0  0  0  0
    0.6480   -1.0369    0.0000 H   0  0  0  0  0  0  0  0  0  0  0  0
  1  2  2  0  0  0  0
  1  6  1  0  0  0  0
  2  3  1  0  0  0  0
  3  4  2  0  0  0  0
  4  5  1  0  0  0  0
  5  6  2  0  0  0  0
  5 11  1  0  0  0  0
  6  7  1  0  0  0  0
  7  8  2  0  0  0  0
  8  9  1  0  0  0  0
  9 10  2  0  0  0  0
  9 11  1  0  0  0  0
  1 12  1  0  0  0  0
 13 14  1  0  0  0  0
 14 15  1  0  0  0  0
 14 16  1  6  0  0  0
 16 17  1  0  0  0  0
 16 18  1  0  0  0  0
 16 19  1  0  0  0  0
  2 15  1  0  0  0  0
  3 13  1  0  0  0  0
 21 20  1  6  0  0  0
 21 22  1  0  0  0  0
 21 26  1  0  0  0  0
 22 23  1  0  0  0  0
 22 40  1  1  0  0  0
 23 24  1  0  0  0  0
 23 39  1  6  0  0  0
 24 25  1  0  0  0  0
 24 38  1  6  0  0  0
 25 26  1  0  0  0  0
 25 27  1  1  0  0  0
 28 27  1  6  0  0  0
 28 29  1  0  0  0  0
 28 33  1  0  0  0  0
 29 30  1  0  0  0  0
 29 37  1  1  0  0  0
 30 31  1  0  0  0  0
 30 36  1  6  0  0  0
 31 32  1  0  0  0  0
 31 34  1  1  0  0  0
 32 33  1  0  0  0  0
 34 35  1  0  0  0  0
  4 33  1  0  0  0  0
 41 42  1  0  0  0  0
 41 43  1  0  0  0  0
 41 44  1  0  0  0  0
 44 45  2  0  0  0  0
  8 41  1  0  0  0  0
  7 46  1  0  0  0  0
M  END
> <score_Kier1>
0.51772

$$$$
suggested molecule #553
 MOE2019            2D

 46 50  0  0  1  0  0  0  0  0999 V2000
    3.4992   -1.2833    0.0000 C   0  0  0  0  0  0  0  0  0  1  0  0
    4.9992   -1.2762    0.0000 C   0  0  0  0  0  0  0  0  0  2  0  0
    5.7430    0.0263    0.0000 C   0  0  0  0  0  0  0  0  0  3  0  0
    4.9869    1.3218    0.0000 C   0  0  0  0  0  0  0  0  0  4  0  0
    3.4870    1.3147    0.0000 C   0  0  0  0  0  0  0  0  0  5  0  0
    2.7431    0.0122    0.0000 C   0  0  0  0  0  0  0  0  0  6  0  0
    1.2431    0.0051    0.0000 C   0  0  0  0  0  0  0  0  0  7  0  0
    0.4870    1.3006    0.0000 C   0  0  0  0  0  0  0  0  0  8  0  0
    1.2309    2.6032    0.0000 C   0  0  0  0  0  0  0  0  0  9  0  0
    0.4748    3.8987    0.0000 O   0  0  0  0  0  0  0  0  0 10  0  0
    2.7309    2.6102    0.0000 O   0  0  0  0  0  0  0  0  0 11  0  0
    2.9041   -2.3253    0.0000 H   0  0  0  0  0  0  0  0  0  0  0  0
    7.2117   -0.2787    0.0000 O   0  0  0  0  0  0  0  0  0  0  0  0
    7.3755   -1.7697    0.0000 C   0  0  1  0  0  0  0  0  0  0  0  0
    6.0081   -2.3862    0.0000 C   0  0  0  0  0  0  0  0  0  0  0  0
    8.6781   -2.5136    0.0000 C   0  0  0  0  0  0  0  0  0  0  0  0
    9.9806   -3.2575    0.0000 C   0  0  0  0  0  0  0  0  0  0  0  0
    7.9342   -3.8161    0.0000 C   0  0  0  0  0  0  0  0  0  0  0  0
    9.4220   -1.2110    0.0000 O   0  0  0  0  0  0  0  0  0  0  0  0
   12.7226    4.3893    0.0000 C   0  0  0  0  0  0  0  0  0  0  0  0
   11.9787    3.0868    0.0000 C   0  0  1  0  0  0  0  0  0  0  0  0
   12.7348    1.7913    0.0000 C   0  0  1  0  0  0  0  0  0  0  0  0
   11.9909    0.4887    0.0000 C   0  0  2  0  0  0  0  0  0  0  0  0
   10.4910    0.4817    0.0000 C   0  0  2  0  0  0  0  0  0  0  0  0
    9.7348    1.7772    0.0000 C   0  0  1  0  0  0  0  0  0  0  0  0
   10.4787    3.0797    0.0000 O   0  0  0  0  0  0  0  0  0  0  0  0
    8.2349    1.7701    0.0000 O   0  0  0  0  0  0  0  0  0  0  0  0
    7.4788    3.0656    0.0000 C   0  0  2  0  0  0  0  0  0  0  0  0
    8.2226    4.3681    0.0000 C   0  0  2  0  0  0  0  0  0  0  0  0
    7.4665    5.6636    0.0000 C   0  0  1  0  0  0  0  0  0  0  0  0
    5.9666    5.6566    0.0000 C   0  0  2  0  0  0  0  0  0  0  0  0
    5.2227    4.3540    0.0000 O   0  0  0  0  0  0  0  0  0  0  0  0
    5.9788    3.0585    0.0000 C   0  0  0  0  0  0  0  0  0  0  0  0
    5.2105    6.9521    0.0000 C   0  0  0  0  0  0  0  0  0  0  0  0
    5.9543    8.2546    0.0000 O   0  0  0  0  0  0  0  0  0  0  0  0
    8.2104    6.9662    0.0000 O   0  0  0  0  0  0  0  0  0  0  0  0
    9.7226    4.3752    0.0000 O   0  0  0  0  0  0  0  0  0  0  0  0
    9.7471   -0.8209    0.0000 O   0  0  0  0  0  0  0  0  0  0  0  0
   12.7470   -0.8068    0.0000 O   0  0  0  0  0  0  0  0  0  0  0  0
   14.2348    1.7983    0.0000 O   0  0  0  0  0  0  0  0  0  0  0  0
   -1.0130    1.2936    0.0000 C   0  0  0  0  0  0  0  0  0  0  0  0
   -1.0200    2.7936    0.0000 C   0  0  0  0  0  0  0  0  0  0  0  0
   -1.0059   -0.2064    0.0000 C   0  0  0  0  0  0  0  0  0  0  0  0
   -2.5130    1.2865    0.0000 C   0  0  0  0  0  0  0  0  0  0  0  0
   -3.2569   -0.0160    0.0000 C   0  0  0  0  0  0  0  0  0  0  0  0
    0.6480   -1.0369    0.0000 H   0  0  0  0  0  0  0  0  0  0  0  0
  1  2  2  0  0  0  0
  1  6  1  0  0  0  0
  2  3  1  0  0  0  0
  3  4  2  0  0  0  0
  4  5  1  0  0  0  0
  5  6  2  0  0  0  0
  5 11  1  0  0  0  0
  6  7  1  0  0  0  0
  7  8  2  0  0  0  0
  8  9  1  0  0  0  0
  9 10  2  0  0  0  0
  9 11  1  0  0  0  0
  1 12  1  0  0  0  0
 13 14  1  0  0  0  0
 14 15  1  0  0  0  0
 14 16  1  6  0  0  0
 16 17  1  0  0  0  0
 16 18  1  0  0  0  0
 16 19  1  0  0  0  0
  2 15  1  0  0  0  0
  3 13  1  0  0  0  0
 21 20  1  6  0  0  0
 21 22  1  0  0  0  0
 21 26  1  0  0  0  0
 22 23  1  0  0  0  0
 22 40  1  1  0  0  0
 23 24  1  0  0  0  0
 23 39  1  6  0  0  0
 24 25  1  0  0  0  0
 24 38  1  6  0  0  0
 25 26  1  0  0  0  0
 25 27  1  1  0  0  0
 28 27  1  6  0  0  0
 28 29  1  0  0  0  0
 28 33  1  0  0  0  0
 29 30  1  0  0  0  0
 29 37  1  1  0  0  0
 30 31  1  0  0  0  0
 30 36  1  6  0  0  0
 31 32  1  0  0  0  0
 31 34  1  1  0  0  0
 32 33  1  0  0  0  0
 34 35  1  0  0  0  0
  4 33  1  0  0  0  0
 41 42  1  0  0  0  0
 41 43  1  0  0  0  0
 41 44  1  0  0  0  0
 44 45  2  0  0  0  0
  8 41  1  0  0  0  0
  7 46  1  0  0  0  0
M  END
> <score_Kier2>
0.516535

$$$$
suggested molecule #554
 MOE2019            2D

 46 50  0  0  1  0  0  0  0  0999 V2000
    3.4992   -1.2833    0.0000 C   0  0  0  0  0  0  0  0  0  1  0  0
    4.9992   -1.2762    0.0000 C   0  0  0  0  0  0  0  0  0  2  0  0
    5.7430    0.0263    0.0000 C   0  0  0  0  0  0  0  0  0  3  0  0
    4.9869    1.3218    0.0000 C   0  0  0  0  0  0  0  0  0  4  0  0
    3.4870    1.3147    0.0000 C   0  0  0  0  0  0  0  0  0  5  0  0
    2.7431    0.0122    0.0000 C   0  0  0  0  0  0  0  0  0  6  0  0
    1.2431    0.0051    0.0000 C   0  0  0  0  0  0  0  0  0  7  0  0
    0.4870    1.3006    0.0000 C   0  0  0  0  0  0  0  0  0  8  0  0
    1.2309    2.6032    0.0000 C   0  0  0  0  0  0  0  0  0  9  0  0
    0.4748    3.8987    0.0000 O   0  0  0  0  0  0  0  0  0 10  0  0
    2.7309    2.6102    0.0000 O   0  0  0  0  0  0  0  0  0 11  0  0
    2.9041   -2.3253    0.0000 H   0  0  0  0  0  0  0  0  0  0  0  0
    7.2117   -0.2787    0.0000 O   0  0  0  0  0  0  0  0  0  0  0  0
    7.3755   -1.7697    0.0000 C   0  0  1  0  0  0  0  0  0  0  0  0
    6.0081   -2.3862    0.0000 C   0  0  0  0  0  0  0  0  0  0  0  0
    8.6781   -2.5136    0.0000 C   0  0  0  0  0  0  0  0  0  0  0  0
    9.9806   -3.2575    0.0000 C   0  0  0  0  0  0  0  0  0  0  0  0
    7.9342   -3.8161    0.0000 C   0  0  0  0  0  0  0  0  0  0  0  0
    9.4220   -1.2110    0.0000 O   0  0  0  0  0  0  0  0  0  0  0  0
   12.7226    4.3893    0.0000 C   0  0  0  0  0  0  0  0  0  0  0  0
   11.9787    3.0868    0.0000 C   0  0  1  0  0  0  0  0  0  0  0  0
   12.7348    1.7913    0.0000 C   0  0  1  0  0  0  0  0  0  0  0  0
   11.9909    0.4887    0.0000 C   0  0  2  0  0  0  0  0  0  0  0  0
   10.4910    0.4817    0.0000 C   0  0  2  0  0  0  0  0  0  0  0  0
    9.7348    1.7772    0.0000 C   0  0  1  0  0  0  0  0  0  0  0  0
   10.4787    3.0797    0.0000 O   0  0  0  0  0  0  0  0  0  0  0  0
    8.2349    1.7701    0.0000 O   0  0  0  0  0  0  0  0  0  0  0  0
    7.4788    3.0656    0.0000 C   0  0  2  0  0  0  0  0  0  0  0  0
    8.2226    4.3681    0.0000 C   0  0  2  0  0  0  0  0  0  0  0  0
    7.4665    5.6636    0.0000 C   0  0  1  0  0  0  0  0  0  0  0  0
    5.9666    5.6566    0.0000 C   0  0  2  0  0  0  0  0  0  0  0  0
    5.2227    4.3540    0.0000 O   0  0  0  0  0  0  0  0  0  0  0  0
    5.9788    3.0585    0.0000 C   0  0  0  0  0  0  0  0  0  0  0  0
    5.2105    6.9521    0.0000 C   0  0  0  0  0  0  0  0  0  0  0  0
    5.9543    8.2546    0.0000 O   0  0  0  0  0  0  0  0  0  0  0  0
    8.2104    6.9662    0.0000 O   0  0  0  0  0  0  0  0  0  0  0  0
    9.7226    4.3752    0.0000 O   0  0  0  0  0  0  0  0  0  0  0  0
    9.7471   -0.8209    0.0000 O   0  0  0  0  0  0  0  0  0  0  0  0
   12.7470   -0.8068    0.0000 O   0  0  0  0  0  0  0  0  0  0  0  0
   14.2348    1.7983    0.0000 O   0  0  0  0  0  0  0  0  0  0  0  0
   -1.0130    1.2936    0.0000 C   0  0  0  0  0  0  0  0  0  0  0  0
   -1.0200    2.7936    0.0000 C   0  0  0  0  0  0  0  0  0  0  0  0
   -1.0059   -0.2064    0.0000 C   0  0  0  0  0  0  0  0  0  0  0  0
   -2.5130    1.2865    0.0000 C   0  0  0  0  0  0  0  0  0  0  0  0
   -3.2569   -0.0160    0.0000 C   0  0  0  0  0  0  0  0  0  0  0  0
    0.6480   -1.0369    0.0000 H   0  0  0  0  0  0  0  0  0  0  0  0
  1  2  2  0  0  0  0
  1  6  1  0  0  0  0
  2  3  1  0  0  0  0
  3  4  2  0  0  0  0
  4  5  1  0  0  0  0
  5  6  2  0  0  0  0
  5 11  1  0  0  0  0
  6  7  1  0  0  0  0
  7  8  2  0  0  0  0
  8  9  1  0  0  0  0
  9 10  2  0  0  0  0
  9 11  1  0  0  0  0
  1 12  1  0  0  0  0
 13 14  1  0  0  0  0
 14 15  1  0  0  0  0
 14 16  1  6  0  0  0
 16 17  1  0  0  0  0
 16 18  1  0  0  0  0
 16 19  1  0  0  0  0
  2 15  1  0  0  0  0
  3 13  1  0  0  0  0
 21 20  1  6  0  0  0
 21 22  1  0  0  0  0
 21 26  1  0  0  0  0
 22 23  1  0  0  0  0
 22 40  1  1  0  0  0
 23 24  1  0  0  0  0
 23 39  1  6  0  0  0
 24 25  1  0  0  0  0
 24 38  1  6  0  0  0
 25 26  1  0  0  0  0
 25 27  1  1  0  0  0
 28 27  1  6  0  0  0
 28 29  1  0  0  0  0
 28 33  1  0  0  0  0
 29 30  1  0  0  0  0
 29 37  1  1  0  0  0
 30 31  1  0  0  0  0
 30 36  1  6  0  0  0
 31 32  1  0  0  0  0
 31 34  1  1  0  0  0
 32 33  1  0  0  0  0
 34 35  1  0  0  0  0
  4 33  1  0  0  0  0
 41 42  1  0  0  0  0
 41 43  1  0  0  0  0
 41 44  1  0  0  0  0
 44 45  2  0  0  0  0
  8 41  1  0  0  0  0
  7 46  1  0  0  0  0
M  END
> <score_KierA2>
0.516718

$$$$
suggested molecule #555
 MOE2019            2D

 44 47  0  0  1  0  0  0  0  0999 V2000
    3.4992   -1.2833    0.0000 C   0  0  0  0  0  0  0  0  0  1  0  0
    4.9992   -1.2762    0.0000 C   0  0  0  0  0  0  0  0  0  2  0  0
    5.7430    0.0263    0.0000 C   0  0  0  0  0  0  0  0  0  3  0  0
    4.9869    1.3218    0.0000 C   0  0  0  0  0  0  0  0  0  4  0  0
    3.4870    1.3147    0.0000 C   0  0  0  0  0  0  0  0  0  5  0  0
    2.7431    0.0122    0.0000 C   0  0  0  0  0  0  0  0  0  6  0  0
    1.2431    0.0051    0.0000 C   0  0  0  0  0  0  0  0  0  7  0  0
    0.4870    1.3006    0.0000 C   0  0  0  0  0  0  0  0  0  8  0  0
    1.2309    2.6032    0.0000 C   0  0  0  0  0  0  0  0  0  9  0  0
    0.4748    3.8987    0.0000 O   0  0  0  0  0  0  0  0  0 10  0  0
    2.7309    2.6102    0.0000 O   0  0  0  0  0  0  0  0  0 11  0  0
    2.9041   -2.3253    0.0000 H   0  0  0  0  0  0  0  0  0  0  0  0
    7.2117   -0.2787    0.0000 O   0  0  0  0  0  0  0  0  0  0  0  0
    7.3755   -1.7697    0.0000 C   0  0  1  0  0  0  0  0  0  0  0  0
    6.0081   -2.3862    0.0000 C   0  0  0  0  0  0  0  0  0  0  0  0
    8.6781   -2.5136    0.0000 C   0  0  0  0  0  0  0  0  0  0  0  0
    9.9806   -3.2575    0.0000 C   0  0  0  0  0  0  0  0  0  0  0  0
    9.4220   -1.2110    0.0000 C   0  0  0  0  0  0  0  0  0  0  0  0
    7.9342   -3.8161    0.0000 O   0  0  0  0  0  0  0  0  0  0  0  0
    6.6914    0.5798    0.0000 C   0  0  0  0  0  0  0  0  0  0  0  0
    7.9869    1.3359    0.0000 C   0  0  0  0  0  0  0  0  0  0  0  0
    7.2308    2.6314    0.0000 C   0  0  1  0  0  0  0  0  0  0  0  0
    5.7308    2.6244    0.0000 C   0  0  0  0  0  0  0  0  0  0  0  0
    8.7430    0.0404    0.0000 O   0  0  0  0  0  0  0  0  0  0  0  0
    4.9747    3.9198    0.0000 O   0  0  0  0  0  0  0  0  0  0  0  0
    7.9747    3.9340    0.0000 O   0  0  0  0  0  0  0  0  0  0  0  0
    9.4747    3.9410    0.0000 C   0  0  1  0  0  0  0  0  0  0  0  0
   10.2186    5.2436    0.0000 C   0  0  1  0  0  0  0  0  0  0  0  0
   11.7185    5.2506    0.0000 C   0  0  2  0  0  0  0  0  0  0  0  0
   12.4746    3.9551    0.0000 C   0  0  1  0  0  0  0  0  0  0  0  0
   11.7308    2.6526    0.0000 C   0  0  2  0  0  0  0  0  0  0  0  0
   10.2308    2.6455    0.0000 O   0  0  0  0  0  0  0  0  0  0  0  0
   12.4869    1.3571    0.0000 C   0  0  0  0  0  0  0  0  0  0  0  0
   13.9868    1.3641    0.0000 O   0  0  0  0  0  0  0  0  0  0  0  0
   13.9746    3.9622    0.0000 O   0  0  0  0  0  0  0  0  0  0  0  0
   12.4624    6.5532    0.0000 O   0  0  0  0  0  0  0  0  0  0  0  0
    9.4625    6.5391    0.0000 O   0  0  0  0  0  0  0  0  0  0  0  0
    9.2824    2.0920    0.0000 C   0  0  0  0  0  0  0  0  0  0  0  0
   -1.0130    1.2936    0.0000 C   0  0  0  0  0  0  0  0  0  0  0  0
   -1.0200    2.7936    0.0000 C   0  0  0  0  0  0  0  0  0  0  0  0
   -1.0059   -0.2064    0.0000 C   0  0  0  0  0  0  0  0  0  0  0  0
   -2.5130    1.2865    0.0000 C   0  0  0  0  0  0  0  0  0  0  0  0
   -3.2569   -0.0160    0.0000 C   0  0  0  0  0  0  0  0  0  0  0  0
    0.6480   -1.0369    0.0000 H   0  0  0  0  0  0  0  0  0  0  0  0
  1  2  2  0  0  0  0
  1  6  1  0  0  0  0
  2  3  1  0  0  0  0
  3  4  2  0  0  0  0
  4  5  1  0  0  0  0
  5  6  2  0  0  0  0
  5 11  1  0  0  0  0
  6  7  1  0  0  0  0
  7  8  2  0  0  0  0
  8  9  1  0  0  0  0
  9 10  2  0  0  0  0
  9 11  1  0  0  0  0
  1 12  1  0  0  0  0
 13 14  1  0  0  0  0
 14 15  1  0  0  0  0
 14 16  1  6  0  0  0
 16 17  1  0  0  0  0
 16 18  1  0  0  0  0
 16 19  1  0  0  0  0
  2 15  1  0  0  0  0
  3 13  1  0  0  0  0
 20 21  1  0  0  0  0
 21 22  1  0  0  0  0
 21 24  1  0  0  0  0
 21 38  1  0  0  0  0
 22 23  1  0  0  0  0
 22 26  1  6  0  0  0
 23 25  1  0  0  0  0
 27 26  1  1  0  0  0
 27 28  1  0  0  0  0
 27 32  1  0  0  0  0
 28 29  1  0  0  0  0
 28 37  1  6  0  0  0
 29 30  1  0  0  0  0
 29 36  1  1  0  0  0
 30 31  1  0  0  0  0
 30 35  1  6  0  0  0
 31 32  1  0  0  0  0
 31 33  1  1  0  0  0
 33 34  1  0  0  0  0
  4 23  1  0  0  0  0
 39 40  1  0  0  0  0
 39 41  1  0  0  0  0
 39 42  1  0  0  0  0
 42 43  2  0  0  0  0
  8 39  1  0  0  0  0
  7 44  1  0  0  0  0
M  END
> <score_Kier1>
0.517763

$$$$
suggested molecule #556
 MOE2019            2D

 44 47  0  0  1  0  0  0  0  0999 V2000
    3.4992   -1.2833    0.0000 C   0  0  0  0  0  0  0  0  0  1  0  0
    4.9992   -1.2762    0.0000 C   0  0  0  0  0  0  0  0  0  2  0  0
    5.7430    0.0263    0.0000 C   0  0  0  0  0  0  0  0  0  3  0  0
    4.9869    1.3218    0.0000 C   0  0  0  0  0  0  0  0  0  4  0  0
    3.4870    1.3147    0.0000 C   0  0  0  0  0  0  0  0  0  5  0  0
    2.7431    0.0122    0.0000 C   0  0  0  0  0  0  0  0  0  6  0  0
    1.2431    0.0051    0.0000 C   0  0  0  0  0  0  0  0  0  7  0  0
    0.4870    1.3006    0.0000 C   0  0  0  0  0  0  0  0  0  8  0  0
    1.2309    2.6032    0.0000 C   0  0  0  0  0  0  0  0  0  9  0  0
    0.4748    3.8987    0.0000 O   0  0  0  0  0  0  0  0  0 10  0  0
    2.7309    2.6102    0.0000 O   0  0  0  0  0  0  0  0  0 11  0  0
    2.9041   -2.3253    0.0000 H   0  0  0  0  0  0  0  0  0  0  0  0
    7.2117   -0.2787    0.0000 O   0  0  0  0  0  0  0  0  0  0  0  0
    7.3755   -1.7697    0.0000 C   0  0  1  0  0  0  0  0  0  0  0  0
    6.0081   -2.3862    0.0000 C   0  0  0  0  0  0  0  0  0  0  0  0
    8.6781   -2.5136    0.0000 C   0  0  0  0  0  0  0  0  0  0  0  0
    9.9806   -3.2575    0.0000 C   0  0  0  0  0  0  0  0  0  0  0  0
    9.4220   -1.2110    0.0000 C   0  0  0  0  0  0  0  0  0  0  0  0
    7.9342   -3.8161    0.0000 O   0  0  0  0  0  0  0  0  0  0  0  0
    6.6914    0.5798    0.0000 C   0  0  0  0  0  0  0  0  0  0  0  0
    7.9869    1.3359    0.0000 C   0  0  0  0  0  0  0  0  0  0  0  0
    7.2308    2.6314    0.0000 C   0  0  1  0  0  0  0  0  0  0  0  0
    5.7308    2.6244    0.0000 C   0  0  0  0  0  0  0  0  0  0  0  0
    8.7430    0.0404    0.0000 O   0  0  0  0  0  0  0  0  0  0  0  0
    4.9747    3.9198    0.0000 O   0  0  0  0  0  0  0  0  0  0  0  0
    7.9747    3.9340    0.0000 O   0  0  0  0  0  0  0  0  0  0  0  0
    9.4747    3.9410    0.0000 C   0  0  1  0  0  0  0  0  0  0  0  0
   10.2186    5.2436    0.0000 C   0  0  1  0  0  0  0  0  0  0  0  0
   11.7185    5.2506    0.0000 C   0  0  2  0  0  0  0  0  0  0  0  0
   12.4746    3.9551    0.0000 C   0  0  1  0  0  0  0  0  0  0  0  0
   11.7308    2.6526    0.0000 C   0  0  2  0  0  0  0  0  0  0  0  0
   10.2308    2.6455    0.0000 O   0  0  0  0  0  0  0  0  0  0  0  0
   12.4869    1.3571    0.0000 C   0  0  0  0  0  0  0  0  0  0  0  0
   13.9868    1.3641    0.0000 O   0  0  0  0  0  0  0  0  0  0  0  0
   13.9746    3.9622    0.0000 O   0  0  0  0  0  0  0  0  0  0  0  0
   12.4624    6.5532    0.0000 O   0  0  0  0  0  0  0  0  0  0  0  0
    9.4625    6.5391    0.0000 O   0  0  0  0  0  0  0  0  0  0  0  0
    9.2824    2.0920    0.0000 C   0  0  0  0  0  0  0  0  0  0  0  0
   -1.0130    1.2936    0.0000 C   0  0  0  0  0  0  0  0  0  0  0  0
   -1.0200    2.7936    0.0000 C   0  0  0  0  0  0  0  0  0  0  0  0
   -1.0059   -0.2064    0.0000 C   0  0  0  0  0  0  0  0  0  0  0  0
   -2.5130    1.2865    0.0000 C   0  0  0  0  0  0  0  0  0  0  0  0
   -3.2569   -0.0160    0.0000 C   0  0  0  0  0  0  0  0  0  0  0  0
    0.6480   -1.0369    0.0000 H   0  0  0  0  0  0  0  0  0  0  0  0
  1  2  2  0  0  0  0
  1  6  1  0  0  0  0
  2  3  1  0  0  0  0
  3  4  2  0  0  0  0
  4  5  1  0  0  0  0
  5  6  2  0  0  0  0
  5 11  1  0  0  0  0
  6  7  1  0  0  0  0
  7  8  2  0  0  0  0
  8  9  1  0  0  0  0
  9 10  2  0  0  0  0
  9 11  1  0  0  0  0
  1 12  1  0  0  0  0
 13 14  1  0  0  0  0
 14 15  1  0  0  0  0
 14 16  1  6  0  0  0
 16 17  1  0  0  0  0
 16 18  1  0  0  0  0
 16 19  1  0  0  0  0
  2 15  1  0  0  0  0
  3 13  1  0  0  0  0
 20 21  1  0  0  0  0
 21 22  1  0  0  0  0
 21 24  1  0  0  0  0
 21 38  1  0  0  0  0
 22 23  1  0  0  0  0
 22 26  1  6  0  0  0
 23 25  1  0  0  0  0
 27 26  1  1  0  0  0
 27 28  1  0  0  0  0
 27 32  1  0  0  0  0
 28 29  1  0  0  0  0
 28 37  1  6  0  0  0
 29 30  1  0  0  0  0
 29 36  1  1  0  0  0
 30 31  1  0  0  0  0
 30 35  1  6  0  0  0
 31 32  1  0  0  0  0
 31 33  1  1  0  0  0
 33 34  1  0  0  0  0
  4 23  1  0  0  0  0
 39 40  1  0  0  0  0
 39 41  1  0  0  0  0
 39 42  1  0  0  0  0
 42 43  2  0  0  0  0
  8 39  1  0  0  0  0
  7 44  1  0  0  0  0
M  END
> <score_Kier2>
0.516582

$$$$
suggested molecule #557
 MOE2019            2D

 44 47  0  0  1  0  0  0  0  0999 V2000
    3.4992   -1.2833    0.0000 C   0  0  0  0  0  0  0  0  0  1  0  0
    4.9992   -1.2762    0.0000 C   0  0  0  0  0  0  0  0  0  2  0  0
    5.7430    0.0263    0.0000 C   0  0  0  0  0  0  0  0  0  3  0  0
    4.9869    1.3218    0.0000 C   0  0  0  0  0  0  0  0  0  4  0  0
    3.4870    1.3147    0.0000 C   0  0  0  0  0  0  0  0  0  5  0  0
    2.7431    0.0122    0.0000 C   0  0  0  0  0  0  0  0  0  6  0  0
    1.2431    0.0051    0.0000 C   0  0  0  0  0  0  0  0  0  7  0  0
    0.4870    1.3006    0.0000 C   0  0  0  0  0  0  0  0  0  8  0  0
    1.2309    2.6032    0.0000 C   0  0  0  0  0  0  0  0  0  9  0  0
    0.4748    3.8987    0.0000 O   0  0  0  0  0  0  0  0  0 10  0  0
    2.7309    2.6102    0.0000 O   0  0  0  0  0  0  0  0  0 11  0  0
    2.9041   -2.3253    0.0000 H   0  0  0  0  0  0  0  0  0  0  0  0
    7.2117   -0.2787    0.0000 O   0  0  0  0  0  0  0  0  0  0  0  0
    7.3755   -1.7697    0.0000 C   0  0  1  0  0  0  0  0  0  0  0  0
    6.0081   -2.3862    0.0000 C   0  0  0  0  0  0  0  0  0  0  0  0
    8.6781   -2.5136    0.0000 C   0  0  0  0  0  0  0  0  0  0  0  0
    9.9806   -3.2575    0.0000 C   0  0  0  0  0  0  0  0  0  0  0  0
    9.4220   -1.2110    0.0000 C   0  0  0  0  0  0  0  0  0  0  0  0
    7.9342   -3.8161    0.0000 O   0  0  0  0  0  0  0  0  0  0  0  0
    6.6914    0.5798    0.0000 C   0  0  0  0  0  0  0  0  0  0  0  0
    7.9869    1.3359    0.0000 C   0  0  0  0  0  0  0  0  0  0  0  0
    7.2308    2.6314    0.0000 C   0  0  1  0  0  0  0  0  0  0  0  0
    5.7308    2.6244    0.0000 C   0  0  0  0  0  0  0  0  0  0  0  0
    8.7430    0.0404    0.0000 O   0  0  0  0  0  0  0  0  0  0  0  0
    4.9747    3.9198    0.0000 O   0  0  0  0  0  0  0  0  0  0  0  0
    7.9747    3.9340    0.0000 O   0  0  0  0  0  0  0  0  0  0  0  0
    9.4747    3.9410    0.0000 C   0  0  1  0  0  0  0  0  0  0  0  0
   10.2186    5.2436    0.0000 C   0  0  1  0  0  0  0  0  0  0  0  0
   11.7185    5.2506    0.0000 C   0  0  2  0  0  0  0  0  0  0  0  0
   12.4746    3.9551    0.0000 C   0  0  1  0  0  0  0  0  0  0  0  0
   11.7308    2.6526    0.0000 C   0  0  2  0  0  0  0  0  0  0  0  0
   10.2308    2.6455    0.0000 O   0  0  0  0  0  0  0  0  0  0  0  0
   12.4869    1.3571    0.0000 C   0  0  0  0  0  0  0  0  0  0  0  0
   13.9868    1.3641    0.0000 O   0  0  0  0  0  0  0  0  0  0  0  0
   13.9746    3.9622    0.0000 O   0  0  0  0  0  0  0  0  0  0  0  0
   12.4624    6.5532    0.0000 O   0  0  0  0  0  0  0  0  0  0  0  0
    9.4625    6.5391    0.0000 O   0  0  0  0  0  0  0  0  0  0  0  0
    9.2824    2.0920    0.0000 C   0  0  0  0  0  0  0  0  0  0  0  0
   -1.0130    1.2936    0.0000 C   0  0  0  0  0  0  0  0  0  0  0  0
   -1.0200    2.7936    0.0000 C   0  0  0  0  0  0  0  0  0  0  0  0
   -1.0059   -0.2064    0.0000 C   0  0  0  0  0  0  0  0  0  0  0  0
   -2.5130    1.2865    0.0000 C   0  0  0  0  0  0  0  0  0  0  0  0
   -3.2569   -0.0160    0.0000 C   0  0  0  0  0  0  0  0  0  0  0  0
    0.6480   -1.0369    0.0000 H   0  0  0  0  0  0  0  0  0  0  0  0
  1  2  2  0  0  0  0
  1  6  1  0  0  0  0
  2  3  1  0  0  0  0
  3  4  2  0  0  0  0
  4  5  1  0  0  0  0
  5  6  2  0  0  0  0
  5 11  1  0  0  0  0
  6  7  1  0  0  0  0
  7  8  2  0  0  0  0
  8  9  1  0  0  0  0
  9 10  2  0  0  0  0
  9 11  1  0  0  0  0
  1 12  1  0  0  0  0
 13 14  1  0  0  0  0
 14 15  1  0  0  0  0
 14 16  1  6  0  0  0
 16 17  1  0  0  0  0
 16 18  1  0  0  0  0
 16 19  1  0  0  0  0
  2 15  1  0  0  0  0
  3 13  1  0  0  0  0
 20 21  1  0  0  0  0
 21 22  1  0  0  0  0
 21 24  1  0  0  0  0
 21 38  1  0  0  0  0
 22 23  1  0  0  0  0
 22 26  1  6  0  0  0
 23 25  1  0  0  0  0
 27 26  1  1  0  0  0
 27 28  1  0  0  0  0
 27 32  1  0  0  0  0
 28 29  1  0  0  0  0
 28 37  1  6  0  0  0
 29 30  1  0  0  0  0
 29 36  1  1  0  0  0
 30 31  1  0  0  0  0
 30 35  1  6  0  0  0
 31 32  1  0  0  0  0
 31 33  1  1  0  0  0
 33 34  1  0  0  0  0
  4 23  1  0  0  0  0
 39 40  1  0  0  0  0
 39 41  1  0  0  0  0
 39 42  1  0  0  0  0
 42 43  2  0  0  0  0
  8 39  1  0  0  0  0
  7 44  1  0  0  0  0
M  END
> <score_KierA2>
0.516762

$$$$
suggested molecule #558
 MOE2019            2D

 43 46  0  0  1  0  0  0  0  0999 V2000
    3.4992   -1.2833    0.0000 C   0  0  0  0  0  0  0  0  0  1  0  0
    4.9992   -1.2762    0.0000 C   0  0  0  0  0  0  0  0  0  2  0  0
    5.7430    0.0263    0.0000 C   0  0  0  0  0  0  0  0  0  3  0  0
    4.9869    1.3218    0.0000 C   0  0  0  0  0  0  0  0  0  4  0  0
    3.4870    1.3147    0.0000 C   0  0  0  0  0  0  0  0  0  5  0  0
    2.7431    0.0122    0.0000 C   0  0  0  0  0  0  0  0  0  6  0  0
    1.2431    0.0051    0.0000 C   0  0  0  0  0  0  0  0  0  7  0  0
    0.4870    1.3006    0.0000 C   0  0  0  0  0  0  0  0  0  8  0  0
    1.2309    2.6032    0.0000 C   0  0  0  0  0  0  0  0  0  9  0  0
    0.4748    3.8987    0.0000 O   0  0  0  0  0  0  0  0  0 10  0  0
    2.7309    2.6102    0.0000 O   0  0  0  0  0  0  0  0  0 11  0  0
    2.9041   -2.3253    0.0000 H   0  0  0  0  0  0  0  0  0  0  0  0
    7.2117   -0.2787    0.0000 O   0  0  0  0  0  0  0  0  0  0  0  0
    7.3755   -1.7697    0.0000 C   0  0  1  0  0  0  0  0  0  0  0  0
    6.0081   -2.3862    0.0000 C   0  0  0  0  0  0  0  0  0  0  0  0
    8.6781   -2.5136    0.0000 C   0  0  0  0  0  0  0  0  0  0  0  0
    9.9806   -3.2575    0.0000 C   0  0  0  0  0  0  0  0  0  0  0  0
    9.4220   -1.2110    0.0000 C   0  0  0  0  0  0  0  0  0  0  0  0
    7.9342   -3.8161    0.0000 O   0  0  0  0  0  0  0  0  0  0  0  0
    9.2772    3.1901    0.0000 C   0  0  0  0  0  0  0  0  0  0  0  0
    7.9747    3.9340    0.0000 C   0  0  0  0  0  0  0  0  0  0  0  0
    6.6721    4.6778    0.0000 C   0  0  0  0  0  0  0  0  0  0  0  0
    7.2308    2.6314    0.0000 C   0  0  0  0  0  0  0  0  0  0  0  0
    5.7308    2.6244    0.0000 C   0  0  0  0  0  0  0  0  0  0  0  0
    7.9869    1.3359    0.0000 O   0  0  0  0  0  0  0  0  0  0  0  0
    8.7186    5.2365    0.0000 O   0  0  0  0  0  0  0  0  0  0  0  0
   10.2186    5.2436    0.0000 C   0  0  1  0  0  0  0  0  0  0  0  0
   10.9624    6.5461    0.0000 C   0  0  1  0  0  0  0  0  0  0  0  0
   12.4624    6.5532    0.0000 C   0  0  2  0  0  0  0  0  0  0  0  0
   13.2185    5.2577    0.0000 C   0  0  1  0  0  0  0  0  0  0  0  0
   12.4746    3.9551    0.0000 C   0  0  2  0  0  0  0  0  0  0  0  0
   10.9747    3.9481    0.0000 O   0  0  0  0  0  0  0  0  0  0  0  0
   13.2307    2.6596    0.0000 C   0  0  0  0  0  0  0  0  0  0  0  0
   14.7307    2.6667    0.0000 O   0  0  0  0  0  0  0  0  0  0  0  0
   14.7185    5.2647    0.0000 O   0  0  0  0  0  0  0  0  0  0  0  0
   13.2063    7.8557    0.0000 O   0  0  0  0  0  0  0  0  0  0  0  0
   10.2063    7.8416    0.0000 O   0  0  0  0  0  0  0  0  0  0  0  0
   -1.0130    1.2936    0.0000 C   0  0  0  0  0  0  0  0  0  0  0  0
   -1.0200    2.7936    0.0000 C   0  0  0  0  0  0  0  0  0  0  0  0
   -1.0059   -0.2064    0.0000 C   0  0  0  0  0  0  0  0  0  0  0  0
   -2.5130    1.2865    0.0000 C   0  0  0  0  0  0  0  0  0  0  0  0
   -3.2569   -0.0160    0.0000 C   0  0  0  0  0  0  0  0  0  0  0  0
    0.6480   -1.0369    0.0000 H   0  0  0  0  0  0  0  0  0  0  0  0
  1  2  2  0  0  0  0
  1  6  1  0  0  0  0
  2  3  1  0  0  0  0
  3  4  2  0  0  0  0
  4  5  1  0  0  0  0
  5  6  2  0  0  0  0
  5 11  1  0  0  0  0
  6  7  1  0  0  0  0
  7  8  2  0  0  0  0
  8  9  1  0  0  0  0
  9 10  2  0  0  0  0
  9 11  1  0  0  0  0
  1 12  1  0  0  0  0
 13 14  1  0  0  0  0
 14 15  1  0  0  0  0
 14 16  1  6  0  0  0
 16 17  1  0  0  0  0
 16 18  1  0  0  0  0
 16 19  1  0  0  0  0
  2 15  1  0  0  0  0
  3 13  1  0  0  0  0
 20 21  1  0  0  0  0
 21 22  1  0  0  0  0
 21 23  1  0  0  0  0
 21 26  1  0  0  0  0
 23 24  1  0  0  0  0
 23 25  1  0  0  0  0
 27 26  1  1  0  0  0
 27 28  1  0  0  0  0
 27 32  1  0  0  0  0
 28 29  1  0  0  0  0
 28 37  1  6  0  0  0
 29 30  1  0  0  0  0
 29 36  1  1  0  0  0
 30 31  1  0  0  0  0
 30 35  1  6  0  0  0
 31 32  1  0  0  0  0
 31 33  1  1  0  0  0
 33 34  1  0  0  0  0
  4 24  1  0  0  0  0
 38 39  1  0  0  0  0
 38 40  1  0  0  0  0
 38 41  1  0  0  0  0
 41 42  2  0  0  0  0
  8 38  1  0  0  0  0
  7 43  1  0  0  0  0
M  END
> <score_Kier1>
0.517769

$$$$
suggested molecule #559
 MOE2019            2D

 43 46  0  0  1  0  0  0  0  0999 V2000
    3.4992   -1.2833    0.0000 C   0  0  0  0  0  0  0  0  0  1  0  0
    4.9992   -1.2762    0.0000 C   0  0  0  0  0  0  0  0  0  2  0  0
    5.7430    0.0263    0.0000 C   0  0  0  0  0  0  0  0  0  3  0  0
    4.9869    1.3218    0.0000 C   0  0  0  0  0  0  0  0  0  4  0  0
    3.4870    1.3147    0.0000 C   0  0  0  0  0  0  0  0  0  5  0  0
    2.7431    0.0122    0.0000 C   0  0  0  0  0  0  0  0  0  6  0  0
    1.2431    0.0051    0.0000 C   0  0  0  0  0  0  0  0  0  7  0  0
    0.4870    1.3006    0.0000 C   0  0  0  0  0  0  0  0  0  8  0  0
    1.2309    2.6032    0.0000 C   0  0  0  0  0  0  0  0  0  9  0  0
    0.4748    3.8987    0.0000 O   0  0  0  0  0  0  0  0  0 10  0  0
    2.7309    2.6102    0.0000 O   0  0  0  0  0  0  0  0  0 11  0  0
    2.9041   -2.3253    0.0000 H   0  0  0  0  0  0  0  0  0  0  0  0
    7.2117   -0.2787    0.0000 O   0  0  0  0  0  0  0  0  0  0  0  0
    7.3755   -1.7697    0.0000 C   0  0  1  0  0  0  0  0  0  0  0  0
    6.0081   -2.3862    0.0000 C   0  0  0  0  0  0  0  0  0  0  0  0
    8.6781   -2.5136    0.0000 C   0  0  0  0  0  0  0  0  0  0  0  0
    9.9806   -3.2575    0.0000 C   0  0  0  0  0  0  0  0  0  0  0  0
    9.4220   -1.2110    0.0000 C   0  0  0  0  0  0  0  0  0  0  0  0
    7.9342   -3.8161    0.0000 O   0  0  0  0  0  0  0  0  0  0  0  0
    9.2772    3.1901    0.0000 C   0  0  0  0  0  0  0  0  0  0  0  0
    7.9747    3.9340    0.0000 C   0  0  0  0  0  0  0  0  0  0  0  0
    6.6721    4.6778    0.0000 C   0  0  0  0  0  0  0  0  0  0  0  0
    7.2308    2.6314    0.0000 C   0  0  0  0  0  0  0  0  0  0  0  0
    5.7308    2.6244    0.0000 C   0  0  0  0  0  0  0  0  0  0  0  0
    7.9869    1.3359    0.0000 O   0  0  0  0  0  0  0  0  0  0  0  0
    8.7186    5.2365    0.0000 O   0  0  0  0  0  0  0  0  0  0  0  0
   10.2186    5.2436    0.0000 C   0  0  1  0  0  0  0  0  0  0  0  0
   10.9624    6.5461    0.0000 C   0  0  1  0  0  0  0  0  0  0  0  0
   12.4624    6.5532    0.0000 C   0  0  2  0  0  0  0  0  0  0  0  0
   13.2185    5.2577    0.0000 C   0  0  1  0  0  0  0  0  0  0  0  0
   12.4746    3.9551    0.0000 C   0  0  2  0  0  0  0  0  0  0  0  0
   10.9747    3.9481    0.0000 O   0  0  0  0  0  0  0  0  0  0  0  0
   13.2307    2.6596    0.0000 C   0  0  0  0  0  0  0  0  0  0  0  0
   14.7307    2.6667    0.0000 O   0  0  0  0  0  0  0  0  0  0  0  0
   14.7185    5.2647    0.0000 O   0  0  0  0  0  0  0  0  0  0  0  0
   13.2063    7.8557    0.0000 O   0  0  0  0  0  0  0  0  0  0  0  0
   10.2063    7.8416    0.0000 O   0  0  0  0  0  0  0  0  0  0  0  0
   -1.0130    1.2936    0.0000 C   0  0  0  0  0  0  0  0  0  0  0  0
   -1.0200    2.7936    0.0000 C   0  0  0  0  0  0  0  0  0  0  0  0
   -1.0059   -0.2064    0.0000 C   0  0  0  0  0  0  0  0  0  0  0  0
   -2.5130    1.2865    0.0000 C   0  0  0  0  0  0  0  0  0  0  0  0
   -3.2569   -0.0160    0.0000 C   0  0  0  0  0  0  0  0  0  0  0  0
    0.6480   -1.0369    0.0000 H   0  0  0  0  0  0  0  0  0  0  0  0
  1  2  2  0  0  0  0
  1  6  1  0  0  0  0
  2  3  1  0  0  0  0
  3  4  2  0  0  0  0
  4  5  1  0  0  0  0
  5  6  2  0  0  0  0
  5 11  1  0  0  0  0
  6  7  1  0  0  0  0
  7  8  2  0  0  0  0
  8  9  1  0  0  0  0
  9 10  2  0  0  0  0
  9 11  1  0  0  0  0
  1 12  1  0  0  0  0
 13 14  1  0  0  0  0
 14 15  1  0  0  0  0
 14 16  1  6  0  0  0
 16 17  1  0  0  0  0
 16 18  1  0  0  0  0
 16 19  1  0  0  0  0
  2 15  1  0  0  0  0
  3 13  1  0  0  0  0
 20 21  1  0  0  0  0
 21 22  1  0  0  0  0
 21 23  1  0  0  0  0
 21 26  1  0  0  0  0
 23 24  1  0  0  0  0
 23 25  1  0  0  0  0
 27 26  1  1  0  0  0
 27 28  1  0  0  0  0
 27 32  1  0  0  0  0
 28 29  1  0  0  0  0
 28 37  1  6  0  0  0
 29 30  1  0  0  0  0
 29 36  1  1  0  0  0
 30 31  1  0  0  0  0
 30 35  1  6  0  0  0
 31 32  1  0  0  0  0
 31 33  1  1  0  0  0
 33 34  1  0  0  0  0
  4 24  1  0  0  0  0
 38 39  1  0  0  0  0
 38 40  1  0  0  0  0
 38 41  1  0  0  0  0
 41 42  2  0  0  0  0
  8 38  1  0  0  0  0
  7 43  1  0  0  0  0
M  END
> <score_Kier2>
0.516585

$$$$
suggested molecule #560
 MOE2019            2D

 43 46  0  0  1  0  0  0  0  0999 V2000
    3.4992   -1.2833    0.0000 C   0  0  0  0  0  0  0  0  0  1  0  0
    4.9992   -1.2762    0.0000 C   0  0  0  0  0  0  0  0  0  2  0  0
    5.7430    0.0263    0.0000 C   0  0  0  0  0  0  0  0  0  3  0  0
    4.9869    1.3218    0.0000 C   0  0  0  0  0  0  0  0  0  4  0  0
    3.4870    1.3147    0.0000 C   0  0  0  0  0  0  0  0  0  5  0  0
    2.7431    0.0122    0.0000 C   0  0  0  0  0  0  0  0  0  6  0  0
    1.2431    0.0051    0.0000 C   0  0  0  0  0  0  0  0  0  7  0  0
    0.4870    1.3006    0.0000 C   0  0  0  0  0  0  0  0  0  8  0  0
    1.2309    2.6032    0.0000 C   0  0  0  0  0  0  0  0  0  9  0  0
    0.4748    3.8987    0.0000 O   0  0  0  0  0  0  0  0  0 10  0  0
    2.7309    2.6102    0.0000 O   0  0  0  0  0  0  0  0  0 11  0  0
    2.9041   -2.3253    0.0000 H   0  0  0  0  0  0  0  0  0  0  0  0
    7.2117   -0.2787    0.0000 O   0  0  0  0  0  0  0  0  0  0  0  0
    7.3755   -1.7697    0.0000 C   0  0  1  0  0  0  0  0  0  0  0  0
    6.0081   -2.3862    0.0000 C   0  0  0  0  0  0  0  0  0  0  0  0
    8.6781   -2.5136    0.0000 C   0  0  0  0  0  0  0  0  0  0  0  0
    9.9806   -3.2575    0.0000 C   0  0  0  0  0  0  0  0  0  0  0  0
    9.4220   -1.2110    0.0000 C   0  0  0  0  0  0  0  0  0  0  0  0
    7.9342   -3.8161    0.0000 O   0  0  0  0  0  0  0  0  0  0  0  0
    9.2772    3.1901    0.0000 C   0  0  0  0  0  0  0  0  0  0  0  0
    7.9747    3.9340    0.0000 C   0  0  0  0  0  0  0  0  0  0  0  0
    6.6721    4.6778    0.0000 C   0  0  0  0  0  0  0  0  0  0  0  0
    7.2308    2.6314    0.0000 C   0  0  0  0  0  0  0  0  0  0  0  0
    5.7308    2.6244    0.0000 C   0  0  0  0  0  0  0  0  0  0  0  0
    7.9869    1.3359    0.0000 O   0  0  0  0  0  0  0  0  0  0  0  0
    8.7186    5.2365    0.0000 O   0  0  0  0  0  0  0  0  0  0  0  0
   10.2186    5.2436    0.0000 C   0  0  1  0  0  0  0  0  0  0  0  0
   10.9624    6.5461    0.0000 C   0  0  1  0  0  0  0  0  0  0  0  0
   12.4624    6.5532    0.0000 C   0  0  2  0  0  0  0  0  0  0  0  0
   13.2185    5.2577    0.0000 C   0  0  1  0  0  0  0  0  0  0  0  0
   12.4746    3.9551    0.0000 C   0  0  2  0  0  0  0  0  0  0  0  0
   10.9747    3.9481    0.0000 O   0  0  0  0  0  0  0  0  0  0  0  0
   13.2307    2.6596    0.0000 C   0  0  0  0  0  0  0  0  0  0  0  0
   14.7307    2.6667    0.0000 O   0  0  0  0  0  0  0  0  0  0  0  0
   14.7185    5.2647    0.0000 O   0  0  0  0  0  0  0  0  0  0  0  0
   13.2063    7.8557    0.0000 O   0  0  0  0  0  0  0  0  0  0  0  0
   10.2063    7.8416    0.0000 O   0  0  0  0  0  0  0  0  0  0  0  0
   -1.0130    1.2936    0.0000 C   0  0  0  0  0  0  0  0  0  0  0  0
   -1.0200    2.7936    0.0000 C   0  0  0  0  0  0  0  0  0  0  0  0
   -1.0059   -0.2064    0.0000 C   0  0  0  0  0  0  0  0  0  0  0  0
   -2.5130    1.2865    0.0000 C   0  0  0  0  0  0  0  0  0  0  0  0
   -3.2569   -0.0160    0.0000 C   0  0  0  0  0  0  0  0  0  0  0  0
    0.6480   -1.0369    0.0000 H   0  0  0  0  0  0  0  0  0  0  0  0
  1  2  2  0  0  0  0
  1  6  1  0  0  0  0
  2  3  1  0  0  0  0
  3  4  2  0  0  0  0
  4  5  1  0  0  0  0
  5  6  2  0  0  0  0
  5 11  1  0  0  0  0
  6  7  1  0  0  0  0
  7  8  2  0  0  0  0
  8  9  1  0  0  0  0
  9 10  2  0  0  0  0
  9 11  1  0  0  0  0
  1 12  1  0  0  0  0
 13 14  1  0  0  0  0
 14 15  1  0  0  0  0
 14 16  1  6  0  0  0
 16 17  1  0  0  0  0
 16 18  1  0  0  0  0
 16 19  1  0  0  0  0
  2 15  1  0  0  0  0
  3 13  1  0  0  0  0
 20 21  1  0  0  0  0
 21 22  1  0  0  0  0
 21 23  1  0  0  0  0
 21 26  1  0  0  0  0
 23 24  1  0  0  0  0
 23 25  1  0  0  0  0
 27 26  1  1  0  0  0
 27 28  1  0  0  0  0
 27 32  1  0  0  0  0
 28 29  1  0  0  0  0
 28 37  1  6  0  0  0
 29 30  1  0  0  0  0
 29 36  1  1  0  0  0
 30 31  1  0  0  0  0
 30 35  1  6  0  0  0
 31 32  1  0  0  0  0
 31 33  1  1  0  0  0
 33 34  1  0  0  0  0
  4 24  1  0  0  0  0
 38 39  1  0  0  0  0
 38 40  1  0  0  0  0
 38 41  1  0  0  0  0
 41 42  2  0  0  0  0
  8 38  1  0  0  0  0
  7 43  1  0  0  0  0
M  END
> <score_KierA1>
0.517587

$$$$
suggested molecule #561
 MOE2019            2D

 43 46  0  0  1  0  0  0  0  0999 V2000
    3.4992   -1.2833    0.0000 C   0  0  0  0  0  0  0  0  0  1  0  0
    4.9992   -1.2762    0.0000 C   0  0  0  0  0  0  0  0  0  2  0  0
    5.7430    0.0263    0.0000 C   0  0  0  0  0  0  0  0  0  3  0  0
    4.9869    1.3218    0.0000 C   0  0  0  0  0  0  0  0  0  4  0  0
    3.4870    1.3147    0.0000 C   0  0  0  0  0  0  0  0  0  5  0  0
    2.7431    0.0122    0.0000 C   0  0  0  0  0  0  0  0  0  6  0  0
    1.2431    0.0051    0.0000 C   0  0  0  0  0  0  0  0  0  7  0  0
    0.4870    1.3006    0.0000 C   0  0  0  0  0  0  0  0  0  8  0  0
    1.2309    2.6032    0.0000 C   0  0  0  0  0  0  0  0  0  9  0  0
    0.4748    3.8987    0.0000 O   0  0  0  0  0  0  0  0  0 10  0  0
    2.7309    2.6102    0.0000 O   0  0  0  0  0  0  0  0  0 11  0  0
    2.9041   -2.3253    0.0000 H   0  0  0  0  0  0  0  0  0  0  0  0
    7.2117   -0.2787    0.0000 O   0  0  0  0  0  0  0  0  0  0  0  0
    7.3755   -1.7697    0.0000 C   0  0  1  0  0  0  0  0  0  0  0  0
    6.0081   -2.3862    0.0000 C   0  0  0  0  0  0  0  0  0  0  0  0
    8.6781   -2.5136    0.0000 C   0  0  0  0  0  0  0  0  0  0  0  0
    9.9806   -3.2575    0.0000 C   0  0  0  0  0  0  0  0  0  0  0  0
    9.4220   -1.2110    0.0000 C   0  0  0  0  0  0  0  0  0  0  0  0
    7.9342   -3.8161    0.0000 O   0  0  0  0  0  0  0  0  0  0  0  0
    9.2772    3.1901    0.0000 C   0  0  0  0  0  0  0  0  0  0  0  0
    7.9747    3.9340    0.0000 C   0  0  0  0  0  0  0  0  0  0  0  0
    6.6721    4.6778    0.0000 C   0  0  0  0  0  0  0  0  0  0  0  0
    7.2308    2.6314    0.0000 C   0  0  0  0  0  0  0  0  0  0  0  0
    5.7308    2.6244    0.0000 C   0  0  0  0  0  0  0  0  0  0  0  0
    7.9869    1.3359    0.0000 O   0  0  0  0  0  0  0  0  0  0  0  0
    8.7186    5.2365    0.0000 O   0  0  0  0  0  0  0  0  0  0  0  0
   10.2186    5.2436    0.0000 C   0  0  1  0  0  0  0  0  0  0  0  0
   10.9624    6.5461    0.0000 C   0  0  1  0  0  0  0  0  0  0  0  0
   12.4624    6.5532    0.0000 C   0  0  2  0  0  0  0  0  0  0  0  0
   13.2185    5.2577    0.0000 C   0  0  1  0  0  0  0  0  0  0  0  0
   12.4746    3.9551    0.0000 C   0  0  2  0  0  0  0  0  0  0  0  0
   10.9747    3.9481    0.0000 O   0  0  0  0  0  0  0  0  0  0  0  0
   13.2307    2.6596    0.0000 C   0  0  0  0  0  0  0  0  0  0  0  0
   14.7307    2.6667    0.0000 O   0  0  0  0  0  0  0  0  0  0  0  0
   14.7185    5.2647    0.0000 O   0  0  0  0  0  0  0  0  0  0  0  0
   13.2063    7.8557    0.0000 O   0  0  0  0  0  0  0  0  0  0  0  0
   10.2063    7.8416    0.0000 O   0  0  0  0  0  0  0  0  0  0  0  0
   -1.0130    1.2936    0.0000 C   0  0  0  0  0  0  0  0  0  0  0  0
   -1.0200    2.7936    0.0000 C   0  0  0  0  0  0  0  0  0  0  0  0
   -1.0059   -0.2064    0.0000 C   0  0  0  0  0  0  0  0  0  0  0  0
   -2.5130    1.2865    0.0000 C   0  0  0  0  0  0  0  0  0  0  0  0
   -3.2569   -0.0160    0.0000 C   0  0  0  0  0  0  0  0  0  0  0  0
    0.6480   -1.0369    0.0000 H   0  0  0  0  0  0  0  0  0  0  0  0
  1  2  2  0  0  0  0
  1  6  1  0  0  0  0
  2  3  1  0  0  0  0
  3  4  2  0  0  0  0
  4  5  1  0  0  0  0
  5  6  2  0  0  0  0
  5 11  1  0  0  0  0
  6  7  1  0  0  0  0
  7  8  2  0  0  0  0
  8  9  1  0  0  0  0
  9 10  2  0  0  0  0
  9 11  1  0  0  0  0
  1 12  1  0  0  0  0
 13 14  1  0  0  0  0
 14 15  1  0  0  0  0
 14 16  1  6  0  0  0
 16 17  1  0  0  0  0
 16 18  1  0  0  0  0
 16 19  1  0  0  0  0
  2 15  1  0  0  0  0
  3 13  1  0  0  0  0
 20 21  1  0  0  0  0
 21 22  1  0  0  0  0
 21 23  1  0  0  0  0
 21 26  1  0  0  0  0
 23 24  1  0  0  0  0
 23 25  1  0  0  0  0
 27 26  1  1  0  0  0
 27 28  1  0  0  0  0
 27 32  1  0  0  0  0
 28 29  1  0  0  0  0
 28 37  1  6  0  0  0
 29 30  1  0  0  0  0
 29 36  1  1  0  0  0
 30 31  1  0  0  0  0
 30 35  1  6  0  0  0
 31 32  1  0  0  0  0
 31 33  1  1  0  0  0
 33 34  1  0  0  0  0
  4 24  1  0  0  0  0
 38 39  1  0  0  0  0
 38 40  1  0  0  0  0
 38 41  1  0  0  0  0
 41 42  2  0  0  0  0
  8 38  1  0  0  0  0
  7 43  1  0  0  0  0
M  END
> <score_KierA2>
0.516765

$$$$
suggested molecule #562
 MOE2019            2D

 47 51  0  0  1  0  0  0  0  0999 V2000
    3.4992   -1.2833    0.0000 C   0  0  0  0  0  0  0  0  0  1  0  0
    4.9992   -1.2762    0.0000 C   0  0  0  0  0  0  0  0  0  2  0  0
    5.7430    0.0263    0.0000 C   0  0  0  0  0  0  0  0  0  3  0  0
    4.9869    1.3218    0.0000 C   0  0  0  0  0  0  0  0  0  4  0  0
    3.4870    1.3147    0.0000 C   0  0  0  0  0  0  0  0  0  5  0  0
    2.7431    0.0122    0.0000 C   0  0  0  0  0  0  0  0  0  6  0  0
    1.2431    0.0051    0.0000 C   0  0  0  0  0  0  0  0  0  7  0  0
    0.4870    1.3006    0.0000 C   0  0  0  0  0  0  0  0  0  8  0  0
    1.2309    2.6032    0.0000 C   0  0  0  0  0  0  0  0  0  9  0  0
    0.4748    3.8987    0.0000 O   0  0  0  0  0  0  0  0  0 10  0  0
    2.7309    2.6102    0.0000 O   0  0  0  0  0  0  0  0  0 11  0  0
    2.9041   -2.3253    0.0000 H   0  0  0  0  0  0  0  0  0  0  0  0
    7.2117   -0.2787    0.0000 O   0  0  0  0  0  0  0  0  0  0  0  0
    7.3755   -1.7697    0.0000 C   0  0  1  0  0  0  0  0  0  0  0  0
    6.0081   -2.3862    0.0000 C   0  0  0  0  0  0  0  0  0  0  0  0
    8.6781   -2.5136    0.0000 C   0  0  0  0  0  0  0  0  0  0  0  0
    7.9342   -3.8161    0.0000 C   0  0  0  0  0  0  0  0  0  0  0  0
    9.4220   -1.2110    0.0000 C   0  0  0  0  0  0  0  0  0  0  0  0
    9.9806   -3.2575    0.0000 O   0  0  0  0  0  0  0  0  0  0  0  0
    5.7308    2.6244    0.0000 C   0  0  0  0  0  0  0  0  0  0  0  0
    7.2308    2.6314    0.0000 C   0  0  1  0  0  0  0  0  0  0  0  0
    7.9747    3.9340    0.0000 C   0  0  2  0  0  0  0  0  0  0  0  0
    7.2186    5.2295    0.0000 C   0  0  1  0  0  0  0  0  0  0  0  0
    5.7186    5.2224    0.0000 C   0  0  2  0  0  0  0  0  0  0  0  0
    4.9747    3.9198    0.0000 O   0  0  0  0  0  0  0  0  0  0  0  0
    4.9625    6.5179    0.0000 C   0  0  0  0  0  0  0  0  0  0  0  0
    5.7064    7.8204    0.0000 O   0  0  0  0  0  0  0  0  0  0  0  0
    7.9625    6.5320    0.0000 O   0  0  0  0  0  0  0  0  0  0  0  0
    9.4747    3.9410    0.0000 O   0  0  0  0  0  0  0  0  0  0  0  0
    7.9869    1.3359    0.0000 O   0  0  0  0  0  0  0  0  0  0  0  0
    9.4869    1.3430    0.0000 C   0  0  0  0  0  0  0  0  0  0  0  0
   10.2430    0.0475    0.0000 O   0  0  0  0  0  0  0  0  0  0  0  0
   10.2308    2.6455    0.0000 C   0  0  0  0  0  0  0  0  0  0  0  0
   11.7308    2.6526    0.0000 C   0  0  0  0  0  0  0  0  0  0  0  0
   12.4746    3.9551    0.0000 C   0  0  0  0  0  0  0  0  0  0  0  0
   11.7185    5.2506    0.0000 C   0  0  0  0  0  0  0  0  0  0  0  0
   12.4624    6.5532    0.0000 C   0  0  0  0  0  0  0  0  0  0  0  0
   13.9624    6.5602    0.0000 C   0  0  0  0  0  0  0  0  0  0  0  0
   14.7185    5.2647    0.0000 C   0  0  0  0  0  0  0  0  0  0  0  0
   13.9746    3.9622    0.0000 C   0  0  0  0  0  0  0  0  0  0  0  0
   14.7063    7.8628    0.0000 O   0  0  0  0  0  0  0  0  0  0  0  0
   -1.0130    1.2936    0.0000 C   0  0  0  0  0  0  0  0  0  0  0  0
   -1.0200    2.7936    0.0000 C   0  0  0  0  0  0  0  0  0  0  0  0
   -1.0059   -0.2064    0.0000 C   0  0  0  0  0  0  0  0  0  0  0  0
   -2.5130    1.2865    0.0000 C   0  0  0  0  0  0  0  0  0  0  0  0
   -3.2569   -0.0160    0.0000 C   0  0  0  0  0  0  0  0  0  0  0  0
    0.6480   -1.0369    0.0000 H   0  0  0  0  0  0  0  0  0  0  0  0
  1  2  2  0  0  0  0
  1  6  1  0  0  0  0
  2  3  1  0  0  0  0
  3  4  2  0  0  0  0
  4  5  1  0  0  0  0
  5  6  2  0  0  0  0
  5 11  1  0  0  0  0
  6  7  1  0  0  0  0
  7  8  2  0  0  0  0
  8  9  1  0  0  0  0
  9 10  2  0  0  0  0
  9 11  1  0  0  0  0
  1 12  1  0  0  0  0
 13 14  1  0  0  0  0
 14 15  1  0  0  0  0
 14 16  1  6  0  0  0
 16 17  1  0  0  0  0
 16 18  1  0  0  0  0
 16 19  1  0  0  0  0
  2 15  1  0  0  0  0
  3 13  1  0  0  0  0
 20 21  1  0  0  0  0
 20 25  1  0  0  0  0
 21 22  1  0  0  0  0
 21 30  1  1  0  0  0
 22 23  1  0  0  0  0
 22 29  1  6  0  0  0
 23 24  1  0  0  0  0
 23 28  1  1  0  0  0
 24 25  1  0  0  0  0
 24 26  1  6  0  0  0
 26 27  1  0  0  0  0
 30 31  1  0  0  0  0
 31 32  2  0  0  0  0
 31 33  1  0  0  0  0
 33 34  2  0  0  0  0
 34 35  1  0  0  0  0
 35 36  1  0  0  0  0
 35 40  2  0  0  0  0
 36 37  2  0  0  0  0
 37 38  1  0  0  0  0
 38 39  2  0  0  0  0
 38 41  1  0  0  0  0
 39 40  1  0  0  0  0
  4 20  1  0  0  0  0
 42 43  1  0  0  0  0
 42 44  1  0  0  0  0
 42 45  1  0  0  0  0
 45 46  2  0  0  0  0
  8 42  1  0  0  0  0
  7 47  1  0  0  0  0
M  END
> <score_Kier1>
0.517722

$$$$
suggested molecule #563
 MOE2019            2D

 47 51  0  0  1  0  0  0  0  0999 V2000
    3.4992   -1.2833    0.0000 C   0  0  0  0  0  0  0  0  0  1  0  0
    4.9992   -1.2762    0.0000 C   0  0  0  0  0  0  0  0  0  2  0  0
    5.7430    0.0263    0.0000 C   0  0  0  0  0  0  0  0  0  3  0  0
    4.9869    1.3218    0.0000 C   0  0  0  0  0  0  0  0  0  4  0  0
    3.4870    1.3147    0.0000 C   0  0  0  0  0  0  0  0  0  5  0  0
    2.7431    0.0122    0.0000 C   0  0  0  0  0  0  0  0  0  6  0  0
    1.2431    0.0051    0.0000 C   0  0  0  0  0  0  0  0  0  7  0  0
    0.4870    1.3006    0.0000 C   0  0  0  0  0  0  0  0  0  8  0  0
    1.2309    2.6032    0.0000 C   0  0  0  0  0  0  0  0  0  9  0  0
    0.4748    3.8987    0.0000 O   0  0  0  0  0  0  0  0  0 10  0  0
    2.7309    2.6102    0.0000 O   0  0  0  0  0  0  0  0  0 11  0  0
    2.9041   -2.3253    0.0000 H   0  0  0  0  0  0  0  0  0  0  0  0
    7.2117   -0.2787    0.0000 O   0  0  0  0  0  0  0  0  0  0  0  0
    7.3755   -1.7697    0.0000 C   0  0  1  0  0  0  0  0  0  0  0  0
    6.0081   -2.3862    0.0000 C   0  0  0  0  0  0  0  0  0  0  0  0
    8.6781   -2.5136    0.0000 C   0  0  0  0  0  0  0  0  0  0  0  0
    7.9342   -3.8161    0.0000 C   0  0  0  0  0  0  0  0  0  0  0  0
    9.4220   -1.2110    0.0000 C   0  0  0  0  0  0  0  0  0  0  0  0
    9.9806   -3.2575    0.0000 O   0  0  0  0  0  0  0  0  0  0  0  0
    5.7308    2.6244    0.0000 C   0  0  0  0  0  0  0  0  0  0  0  0
    7.2308    2.6314    0.0000 C   0  0  1  0  0  0  0  0  0  0  0  0
    7.9747    3.9340    0.0000 C   0  0  2  0  0  0  0  0  0  0  0  0
    7.2186    5.2295    0.0000 C   0  0  1  0  0  0  0  0  0  0  0  0
    5.7186    5.2224    0.0000 C   0  0  2  0  0  0  0  0  0  0  0  0
    4.9747    3.9198    0.0000 O   0  0  0  0  0  0  0  0  0  0  0  0
    4.9625    6.5179    0.0000 C   0  0  0  0  0  0  0  0  0  0  0  0
    5.7064    7.8204    0.0000 O   0  0  0  0  0  0  0  0  0  0  0  0
    7.9625    6.5320    0.0000 O   0  0  0  0  0  0  0  0  0  0  0  0
    9.4747    3.9410    0.0000 O   0  0  0  0  0  0  0  0  0  0  0  0
    7.9869    1.3359    0.0000 O   0  0  0  0  0  0  0  0  0  0  0  0
    9.4869    1.3430    0.0000 C   0  0  0  0  0  0  0  0  0  0  0  0
   10.2430    0.0475    0.0000 O   0  0  0  0  0  0  0  0  0  0  0  0
   10.2308    2.6455    0.0000 C   0  0  0  0  0  0  0  0  0  0  0  0
   11.7308    2.6526    0.0000 C   0  0  0  0  0  0  0  0  0  0  0  0
   12.4746    3.9551    0.0000 C   0  0  0  0  0  0  0  0  0  0  0  0
   11.7185    5.2506    0.0000 C   0  0  0  0  0  0  0  0  0  0  0  0
   12.4624    6.5532    0.0000 C   0  0  0  0  0  0  0  0  0  0  0  0
   13.9624    6.5602    0.0000 C   0  0  0  0  0  0  0  0  0  0  0  0
   14.7185    5.2647    0.0000 C   0  0  0  0  0  0  0  0  0  0  0  0
   13.9746    3.9622    0.0000 C   0  0  0  0  0  0  0  0  0  0  0  0
   14.7063    7.8628    0.0000 O   0  0  0  0  0  0  0  0  0  0  0  0
   -1.0130    1.2936    0.0000 C   0  0  0  0  0  0  0  0  0  0  0  0
   -1.0200    2.7936    0.0000 C   0  0  0  0  0  0  0  0  0  0  0  0
   -1.0059   -0.2064    0.0000 C   0  0  0  0  0  0  0  0  0  0  0  0
   -2.5130    1.2865    0.0000 C   0  0  0  0  0  0  0  0  0  0  0  0
   -3.2569   -0.0160    0.0000 C   0  0  0  0  0  0  0  0  0  0  0  0
    0.6480   -1.0369    0.0000 H   0  0  0  0  0  0  0  0  0  0  0  0
  1  2  2  0  0  0  0
  1  6  1  0  0  0  0
  2  3  1  0  0  0  0
  3  4  2  0  0  0  0
  4  5  1  0  0  0  0
  5  6  2  0  0  0  0
  5 11  1  0  0  0  0
  6  7  1  0  0  0  0
  7  8  2  0  0  0  0
  8  9  1  0  0  0  0
  9 10  2  0  0  0  0
  9 11  1  0  0  0  0
  1 12  1  0  0  0  0
 13 14  1  0  0  0  0
 14 15  1  0  0  0  0
 14 16  1  6  0  0  0
 16 17  1  0  0  0  0
 16 18  1  0  0  0  0
 16 19  1  0  0  0  0
  2 15  1  0  0  0  0
  3 13  1  0  0  0  0
 20 21  1  0  0  0  0
 20 25  1  0  0  0  0
 21 22  1  0  0  0  0
 21 30  1  1  0  0  0
 22 23  1  0  0  0  0
 22 29  1  6  0  0  0
 23 24  1  0  0  0  0
 23 28  1  1  0  0  0
 24 25  1  0  0  0  0
 24 26  1  6  0  0  0
 26 27  1  0  0  0  0
 30 31  1  0  0  0  0
 31 32  2  0  0  0  0
 31 33  1  0  0  0  0
 33 34  2  0  0  0  0
 34 35  1  0  0  0  0
 35 36  1  0  0  0  0
 35 40  2  0  0  0  0
 36 37  2  0  0  0  0
 37 38  1  0  0  0  0
 38 39  2  0  0  0  0
 38 41  1  0  0  0  0
 39 40  1  0  0  0  0
  4 20  1  0  0  0  0
 42 43  1  0  0  0  0
 42 44  1  0  0  0  0
 42 45  1  0  0  0  0
 45 46  2  0  0  0  0
  8 42  1  0  0  0  0
  7 47  1  0  0  0  0
M  END
> <score_Kier2>
0.516528

$$$$
suggested molecule #564
 MOE2019            2D

 47 51  0  0  1  0  0  0  0  0999 V2000
    3.4992   -1.2833    0.0000 C   0  0  0  0  0  0  0  0  0  1  0  0
    4.9992   -1.2762    0.0000 C   0  0  0  0  0  0  0  0  0  2  0  0
    5.7430    0.0263    0.0000 C   0  0  0  0  0  0  0  0  0  3  0  0
    4.9869    1.3218    0.0000 C   0  0  0  0  0  0  0  0  0  4  0  0
    3.4870    1.3147    0.0000 C   0  0  0  0  0  0  0  0  0  5  0  0
    2.7431    0.0122    0.0000 C   0  0  0  0  0  0  0  0  0  6  0  0
    1.2431    0.0051    0.0000 C   0  0  0  0  0  0  0  0  0  7  0  0
    0.4870    1.3006    0.0000 C   0  0  0  0  0  0  0  0  0  8  0  0
    1.2309    2.6032    0.0000 C   0  0  0  0  0  0  0  0  0  9  0  0
    0.4748    3.8987    0.0000 O   0  0  0  0  0  0  0  0  0 10  0  0
    2.7309    2.6102    0.0000 O   0  0  0  0  0  0  0  0  0 11  0  0
    2.9041   -2.3253    0.0000 H   0  0  0  0  0  0  0  0  0  0  0  0
    7.2117   -0.2787    0.0000 O   0  0  0  0  0  0  0  0  0  0  0  0
    7.3755   -1.7697    0.0000 C   0  0  1  0  0  0  0  0  0  0  0  0
    6.0081   -2.3862    0.0000 C   0  0  0  0  0  0  0  0  0  0  0  0
    8.6781   -2.5136    0.0000 C   0  0  0  0  0  0  0  0  0  0  0  0
    7.9342   -3.8161    0.0000 C   0  0  0  0  0  0  0  0  0  0  0  0
    9.4220   -1.2110    0.0000 C   0  0  0  0  0  0  0  0  0  0  0  0
    9.9806   -3.2575    0.0000 O   0  0  0  0  0  0  0  0  0  0  0  0
    5.7308    2.6244    0.0000 C   0  0  0  0  0  0  0  0  0  0  0  0
    7.2308    2.6314    0.0000 C   0  0  1  0  0  0  0  0  0  0  0  0
    7.9747    3.9340    0.0000 C   0  0  2  0  0  0  0  0  0  0  0  0
    7.2186    5.2295    0.0000 C   0  0  1  0  0  0  0  0  0  0  0  0
    5.7186    5.2224    0.0000 C   0  0  2  0  0  0  0  0  0  0  0  0
    4.9747    3.9198    0.0000 O   0  0  0  0  0  0  0  0  0  0  0  0
    4.9625    6.5179    0.0000 C   0  0  0  0  0  0  0  0  0  0  0  0
    5.7064    7.8204    0.0000 O   0  0  0  0  0  0  0  0  0  0  0  0
    7.9625    6.5320    0.0000 O   0  0  0  0  0  0  0  0  0  0  0  0
    9.4747    3.9410    0.0000 O   0  0  0  0  0  0  0  0  0  0  0  0
    7.9869    1.3359    0.0000 O   0  0  0  0  0  0  0  0  0  0  0  0
    9.4869    1.3430    0.0000 C   0  0  0  0  0  0  0  0  0  0  0  0
   10.2430    0.0475    0.0000 O   0  0  0  0  0  0  0  0  0  0  0  0
   10.2308    2.6455    0.0000 C   0  0  0  0  0  0  0  0  0  0  0  0
   11.7308    2.6526    0.0000 C   0  0  0  0  0  0  0  0  0  0  0  0
   12.4746    3.9551    0.0000 C   0  0  0  0  0  0  0  0  0  0  0  0
   11.7185    5.2506    0.0000 C   0  0  0  0  0  0  0  0  0  0  0  0
   12.4624    6.5532    0.0000 C   0  0  0  0  0  0  0  0  0  0  0  0
   13.9624    6.5602    0.0000 C   0  0  0  0  0  0  0  0  0  0  0  0
   14.7185    5.2647    0.0000 C   0  0  0  0  0  0  0  0  0  0  0  0
   13.9746    3.9622    0.0000 C   0  0  0  0  0  0  0  0  0  0  0  0
   14.7063    7.8628    0.0000 O   0  0  0  0  0  0  0  0  0  0  0  0
   -1.0130    1.2936    0.0000 C   0  0  0  0  0  0  0  0  0  0  0  0
   -1.0200    2.7936    0.0000 C   0  0  0  0  0  0  0  0  0  0  0  0
   -1.0059   -0.2064    0.0000 C   0  0  0  0  0  0  0  0  0  0  0  0
   -2.5130    1.2865    0.0000 C   0  0  0  0  0  0  0  0  0  0  0  0
   -3.2569   -0.0160    0.0000 C   0  0  0  0  0  0  0  0  0  0  0  0
    0.6480   -1.0369    0.0000 H   0  0  0  0  0  0  0  0  0  0  0  0
  1  2  2  0  0  0  0
  1  6  1  0  0  0  0
  2  3  1  0  0  0  0
  3  4  2  0  0  0  0
  4  5  1  0  0  0  0
  5  6  2  0  0  0  0
  5 11  1  0  0  0  0
  6  7  1  0  0  0  0
  7  8  2  0  0  0  0
  8  9  1  0  0  0  0
  9 10  2  0  0  0  0
  9 11  1  0  0  0  0
  1 12  1  0  0  0  0
 13 14  1  0  0  0  0
 14 15  1  0  0  0  0
 14 16  1  6  0  0  0
 16 17  1  0  0  0  0
 16 18  1  0  0  0  0
 16 19  1  0  0  0  0
  2 15  1  0  0  0  0
  3 13  1  0  0  0  0
 20 21  1  0  0  0  0
 20 25  1  0  0  0  0
 21 22  1  0  0  0  0
 21 30  1  1  0  0  0
 22 23  1  0  0  0  0
 22 29  1  6  0  0  0
 23 24  1  0  0  0  0
 23 28  1  1  0  0  0
 24 25  1  0  0  0  0
 24 26  1  6  0  0  0
 26 27  1  0  0  0  0
 30 31  1  0  0  0  0
 31 32  2  0  0  0  0
 31 33  1  0  0  0  0
 33 34  2  0  0  0  0
 34 35  1  0  0  0  0
 35 36  1  0  0  0  0
 35 40  2  0  0  0  0
 36 37  2  0  0  0  0
 37 38  1  0  0  0  0
 38 39  2  0  0  0  0
 38 41  1  0  0  0  0
 39 40  1  0  0  0  0
  4 20  1  0  0  0  0
 42 43  1  0  0  0  0
 42 44  1  0  0  0  0
 42 45  1  0  0  0  0
 45 46  2  0  0  0  0
  8 42  1  0  0  0  0
  7 47  1  0  0  0  0
M  END
> <score_KierA2>
0.516721

$$$$
suggested molecule #565
 MOE2019            2D

 31 34  0  0  1  0  0  0  0  0999 V2000
    3.4992   -1.2833    0.0000 C   0  0  0  0  0  0  0  0  0  1  0  0
    4.9992   -1.2762    0.0000 C   0  0  0  0  0  0  0  0  0  2  0  0
    5.7430    0.0263    0.0000 C   0  0  0  0  0  0  0  0  0  3  0  0
    4.9869    1.3218    0.0000 C   0  0  0  0  0  0  0  0  0  4  0  0
    3.4870    1.3147    0.0000 C   0  0  0  0  0  0  0  0  0  5  0  0
    2.7431    0.0122    0.0000 C   0  0  0  0  0  0  0  0  0  6  0  0
    1.2431    0.0051    0.0000 C   0  0  0  0  0  0  0  0  0  7  0  0
    0.4870    1.3006    0.0000 C   0  0  0  0  0  0  0  0  0  8  0  0
    1.2309    2.6032    0.0000 C   0  0  0  0  0  0  0  0  0  9  0  0
    0.4748    3.8987    0.0000 O   0  0  0  0  0  0  0  0  0 10  0  0
    2.7309    2.6102    0.0000 O   0  0  0  0  0  0  0  0  0 11  0  0
    2.9041   -2.3253    0.0000 H   0  0  0  0  0  0  0  0  0  0  0  0
    7.2117   -0.2787    0.0000 O   0  0  0  0  0  0  0  0  0  0  0  0
    7.3755   -1.7697    0.0000 C   0  0  1  0  0  0  0  0  0  0  0  0
    6.0081   -2.3862    0.0000 C   0  0  0  0  0  0  0  0  0  0  0  0
    8.6781   -2.5136    0.0000 C   0  0  0  0  0  0  0  0  0  0  0  0
    9.4220   -1.2110    0.0000 C   0  0  0  0  0  0  0  0  0  0  0  0
    7.9342   -3.8161    0.0000 C   0  0  0  0  0  0  0  0  0  0  0  0
    9.9806   -3.2575    0.0000 O   0  0  0  0  0  0  0  0  0  0  0  0
    9.2702    4.6901    0.0000 C   0  0  0  0  0  0  0  0  0  0  0  0
    8.5263    3.3875    0.0000 C   0  0  0  0  0  0  0  0  0  0  0  0
    9.2824    2.0920    0.0000 C   0  0  0  0  0  0  0  0  0  0  0  0
    7.0263    3.3805    0.0000 C   0  0  0  0  0  0  0  0  0  0  0  0
    5.7308    2.6244    0.0000 C   0  0  0  0  0  0  0  0  0  0  0  0
    5.7238    4.1243    0.0000 O   0  0  0  0  0  0  0  0  0  0  0  0
   -1.0130    1.2936    0.0000 C   0  0  0  0  0  0  0  0  0  0  0  0
   -1.0059   -0.2064    0.0000 C   0  0  0  0  0  0  0  0  0  0  0  0
   -1.0200    2.7936    0.0000 C   0  0  0  0  0  0  0  0  0  0  0  0
   -2.5130    1.2865    0.0000 C   0  0  0  0  0  0  0  0  0  0  0  0
   -3.2569   -0.0160    0.0000 C   0  0  0  0  0  0  0  0  0  0  0  0
    0.6480   -1.0369    0.0000 H   0  0  0  0  0  0  0  0  0  0  0  0
  1  2  2  0  0  0  0
  1  6  1  0  0  0  0
  2  3  1  0  0  0  0
  3  4  2  0  0  0  0
  4  5  1  0  0  0  0
  5  6  2  0  0  0  0
  5 11  1  0  0  0  0
  6  7  1  0  0  0  0
  7  8  2  0  0  0  0
  8  9  1  0  0  0  0
  9 10  2  0  0  0  0
  9 11  1  0  0  0  0
  1 12  1  0  0  0  0
 13 14  1  0  0  0  0
 14 15  1  0  0  0  0
 14 16  1  6  0  0  0
 16 17  1  0  0  0  0
 16 18  1  0  0  0  0
 16 19  1  0  0  0  0
  2 15  1  0  0  0  0
  3 13  1  0  0  0  0
 20 21  1  0  0  0  0
 21 22  2  0  0  0  0
 21 23  1  0  0  0  0
 23 24  1  0  0  0  0
 23 25  1  0  0  0  0
 24 25  1  0  0  0  0
  4 24  1  0  0  0  0
 26 27  1  0  0  0  0
 26 28  1  0  0  0  0
 26 29  1  0  0  0  0
 29 30  2  0  0  0  0
  8 26  1  0  0  0  0
  7 31  1  0  0  0  0
M  END
> <score_Kier1>
0.517829

$$$$
suggested molecule #566
 MOE2019            2D

 31 34  0  0  1  0  0  0  0  0999 V2000
    3.4992   -1.2833    0.0000 C   0  0  0  0  0  0  0  0  0  1  0  0
    4.9992   -1.2762    0.0000 C   0  0  0  0  0  0  0  0  0  2  0  0
    5.7430    0.0263    0.0000 C   0  0  0  0  0  0  0  0  0  3  0  0
    4.9869    1.3218    0.0000 C   0  0  0  0  0  0  0  0  0  4  0  0
    3.4870    1.3147    0.0000 C   0  0  0  0  0  0  0  0  0  5  0  0
    2.7431    0.0122    0.0000 C   0  0  0  0  0  0  0  0  0  6  0  0
    1.2431    0.0051    0.0000 C   0  0  0  0  0  0  0  0  0  7  0  0
    0.4870    1.3006    0.0000 C   0  0  0  0  0  0  0  0  0  8  0  0
    1.2309    2.6032    0.0000 C   0  0  0  0  0  0  0  0  0  9  0  0
    0.4748    3.8987    0.0000 O   0  0  0  0  0  0  0  0  0 10  0  0
    2.7309    2.6102    0.0000 O   0  0  0  0  0  0  0  0  0 11  0  0
    2.9041   -2.3253    0.0000 H   0  0  0  0  0  0  0  0  0  0  0  0
    7.2117   -0.2787    0.0000 O   0  0  0  0  0  0  0  0  0  0  0  0
    7.3755   -1.7697    0.0000 C   0  0  1  0  0  0  0  0  0  0  0  0
    6.0081   -2.3862    0.0000 C   0  0  0  0  0  0  0  0  0  0  0  0
    8.6781   -2.5136    0.0000 C   0  0  0  0  0  0  0  0  0  0  0  0
    9.4220   -1.2110    0.0000 C   0  0  0  0  0  0  0  0  0  0  0  0
    7.9342   -3.8161    0.0000 C   0  0  0  0  0  0  0  0  0  0  0  0
    9.9806   -3.2575    0.0000 O   0  0  0  0  0  0  0  0  0  0  0  0
    9.2702    4.6901    0.0000 C   0  0  0  0  0  0  0  0  0  0  0  0
    8.5263    3.3875    0.0000 C   0  0  0  0  0  0  0  0  0  0  0  0
    9.2824    2.0920    0.0000 C   0  0  0  0  0  0  0  0  0  0  0  0
    7.0263    3.3805    0.0000 C   0  0  0  0  0  0  0  0  0  0  0  0
    5.7308    2.6244    0.0000 C   0  0  0  0  0  0  0  0  0  0  0  0
    5.7238    4.1243    0.0000 O   0  0  0  0  0  0  0  0  0  0  0  0
   -1.0130    1.2936    0.0000 C   0  0  0  0  0  0  0  0  0  0  0  0
   -1.0059   -0.2064    0.0000 C   0  0  0  0  0  0  0  0  0  0  0  0
   -1.0200    2.7936    0.0000 C   0  0  0  0  0  0  0  0  0  0  0  0
   -2.5130    1.2865    0.0000 C   0  0  0  0  0  0  0  0  0  0  0  0
   -3.2569   -0.0160    0.0000 C   0  0  0  0  0  0  0  0  0  0  0  0
    0.6480   -1.0369    0.0000 H   0  0  0  0  0  0  0  0  0  0  0  0
  1  2  2  0  0  0  0
  1  6  1  0  0  0  0
  2  3  1  0  0  0  0
  3  4  2  0  0  0  0
  4  5  1  0  0  0  0
  5  6  2  0  0  0  0
  5 11  1  0  0  0  0
  6  7  1  0  0  0  0
  7  8  2  0  0  0  0
  8  9  1  0  0  0  0
  9 10  2  0  0  0  0
  9 11  1  0  0  0  0
  1 12  1  0  0  0  0
 13 14  1  0  0  0  0
 14 15  1  0  0  0  0
 14 16  1  6  0  0  0
 16 17  1  0  0  0  0
 16 18  1  0  0  0  0
 16 19  1  0  0  0  0
  2 15  1  0  0  0  0
  3 13  1  0  0  0  0
 20 21  1  0  0  0  0
 21 22  2  0  0  0  0
 21 23  1  0  0  0  0
 23 24  1  0  0  0  0
 23 25  1  0  0  0  0
 24 25  1  0  0  0  0
  4 24  1  0  0  0  0
 26 27  1  0  0  0  0
 26 28  1  0  0  0  0
 26 29  1  0  0  0  0
 29 30  2  0  0  0  0
  8 26  1  0  0  0  0
  7 31  1  0  0  0  0
M  END
> <score_Kier2>
0.516637

$$$$
suggested molecule #567
 MOE2019            2D

 31 34  0  0  1  0  0  0  0  0999 V2000
    3.4992   -1.2833    0.0000 C   0  0  0  0  0  0  0  0  0  1  0  0
    4.9992   -1.2762    0.0000 C   0  0  0  0  0  0  0  0  0  2  0  0
    5.7430    0.0263    0.0000 C   0  0  0  0  0  0  0  0  0  3  0  0
    4.9869    1.3218    0.0000 C   0  0  0  0  0  0  0  0  0  4  0  0
    3.4870    1.3147    0.0000 C   0  0  0  0  0  0  0  0  0  5  0  0
    2.7431    0.0122    0.0000 C   0  0  0  0  0  0  0  0  0  6  0  0
    1.2431    0.0051    0.0000 C   0  0  0  0  0  0  0  0  0  7  0  0
    0.4870    1.3006    0.0000 C   0  0  0  0  0  0  0  0  0  8  0  0
    1.2309    2.6032    0.0000 C   0  0  0  0  0  0  0  0  0  9  0  0
    0.4748    3.8987    0.0000 O   0  0  0  0  0  0  0  0  0 10  0  0
    2.7309    2.6102    0.0000 O   0  0  0  0  0  0  0  0  0 11  0  0
    2.9041   -2.3253    0.0000 H   0  0  0  0  0  0  0  0  0  0  0  0
    7.2117   -0.2787    0.0000 O   0  0  0  0  0  0  0  0  0  0  0  0
    7.3755   -1.7697    0.0000 C   0  0  1  0  0  0  0  0  0  0  0  0
    6.0081   -2.3862    0.0000 C   0  0  0  0  0  0  0  0  0  0  0  0
    8.6781   -2.5136    0.0000 C   0  0  0  0  0  0  0  0  0  0  0  0
    9.4220   -1.2110    0.0000 C   0  0  0  0  0  0  0  0  0  0  0  0
    7.9342   -3.8161    0.0000 C   0  0  0  0  0  0  0  0  0  0  0  0
    9.9806   -3.2575    0.0000 O   0  0  0  0  0  0  0  0  0  0  0  0
    9.2702    4.6901    0.0000 C   0  0  0  0  0  0  0  0  0  0  0  0
    8.5263    3.3875    0.0000 C   0  0  0  0  0  0  0  0  0  0  0  0
    9.2824    2.0920    0.0000 C   0  0  0  0  0  0  0  0  0  0  0  0
    7.0263    3.3805    0.0000 C   0  0  0  0  0  0  0  0  0  0  0  0
    5.7308    2.6244    0.0000 C   0  0  0  0  0  0  0  0  0  0  0  0
    5.7238    4.1243    0.0000 O   0  0  0  0  0  0  0  0  0  0  0  0
   -1.0130    1.2936    0.0000 C   0  0  0  0  0  0  0  0  0  0  0  0
   -1.0059   -0.2064    0.0000 C   0  0  0  0  0  0  0  0  0  0  0  0
   -1.0200    2.7936    0.0000 C   0  0  0  0  0  0  0  0  0  0  0  0
   -2.5130    1.2865    0.0000 C   0  0  0  0  0  0  0  0  0  0  0  0
   -3.2569   -0.0160    0.0000 C   0  0  0  0  0  0  0  0  0  0  0  0
    0.6480   -1.0369    0.0000 H   0  0  0  0  0  0  0  0  0  0  0  0
  1  2  2  0  0  0  0
  1  6  1  0  0  0  0
  2  3  1  0  0  0  0
  3  4  2  0  0  0  0
  4  5  1  0  0  0  0
  5  6  2  0  0  0  0
  5 11  1  0  0  0  0
  6  7  1  0  0  0  0
  7  8  2  0  0  0  0
  8  9  1  0  0  0  0
  9 10  2  0  0  0  0
  9 11  1  0  0  0  0
  1 12  1  0  0  0  0
 13 14  1  0  0  0  0
 14 15  1  0  0  0  0
 14 16  1  6  0  0  0
 16 17  1  0  0  0  0
 16 18  1  0  0  0  0
 16 19  1  0  0  0  0
  2 15  1  0  0  0  0
  3 13  1  0  0  0  0
 20 21  1  0  0  0  0
 21 22  2  0  0  0  0
 21 23  1  0  0  0  0
 23 24  1  0  0  0  0
 23 25  1  0  0  0  0
 24 25  1  0  0  0  0
  4 24  1  0  0  0  0
 26 27  1  0  0  0  0
 26 28  1  0  0  0  0
 26 29  1  0  0  0  0
 29 30  2  0  0  0  0
  8 26  1  0  0  0  0
  7 31  1  0  0  0  0
M  END
> <score_KierA1>
0.517661

$$$$
suggested molecule #568
 MOE2019            2D

 31 34  0  0  1  0  0  0  0  0999 V2000
    3.4992   -1.2833    0.0000 C   0  0  0  0  0  0  0  0  0  1  0  0
    4.9992   -1.2762    0.0000 C   0  0  0  0  0  0  0  0  0  2  0  0
    5.7430    0.0263    0.0000 C   0  0  0  0  0  0  0  0  0  3  0  0
    4.9869    1.3218    0.0000 C   0  0  0  0  0  0  0  0  0  4  0  0
    3.4870    1.3147    0.0000 C   0  0  0  0  0  0  0  0  0  5  0  0
    2.7431    0.0122    0.0000 C   0  0  0  0  0  0  0  0  0  6  0  0
    1.2431    0.0051    0.0000 C   0  0  0  0  0  0  0  0  0  7  0  0
    0.4870    1.3006    0.0000 C   0  0  0  0  0  0  0  0  0  8  0  0
    1.2309    2.6032    0.0000 C   0  0  0  0  0  0  0  0  0  9  0  0
    0.4748    3.8987    0.0000 O   0  0  0  0  0  0  0  0  0 10  0  0
    2.7309    2.6102    0.0000 O   0  0  0  0  0  0  0  0  0 11  0  0
    2.9041   -2.3253    0.0000 H   0  0  0  0  0  0  0  0  0  0  0  0
    7.2117   -0.2787    0.0000 O   0  0  0  0  0  0  0  0  0  0  0  0
    7.3755   -1.7697    0.0000 C   0  0  1  0  0  0  0  0  0  0  0  0
    6.0081   -2.3862    0.0000 C   0  0  0  0  0  0  0  0  0  0  0  0
    8.6781   -2.5136    0.0000 C   0  0  0  0  0  0  0  0  0  0  0  0
    9.4220   -1.2110    0.0000 C   0  0  0  0  0  0  0  0  0  0  0  0
    7.9342   -3.8161    0.0000 C   0  0  0  0  0  0  0  0  0  0  0  0
    9.9806   -3.2575    0.0000 O   0  0  0  0  0  0  0  0  0  0  0  0
    9.2702    4.6901    0.0000 C   0  0  0  0  0  0  0  0  0  0  0  0
    8.5263    3.3875    0.0000 C   0  0  0  0  0  0  0  0  0  0  0  0
    9.2824    2.0920    0.0000 C   0  0  0  0  0  0  0  0  0  0  0  0
    7.0263    3.3805    0.0000 C   0  0  0  0  0  0  0  0  0  0  0  0
    5.7308    2.6244    0.0000 C   0  0  0  0  0  0  0  0  0  0  0  0
    5.7238    4.1243    0.0000 O   0  0  0  0  0  0  0  0  0  0  0  0
   -1.0130    1.2936    0.0000 C   0  0  0  0  0  0  0  0  0  0  0  0
   -1.0059   -0.2064    0.0000 C   0  0  0  0  0  0  0  0  0  0  0  0
   -1.0200    2.7936    0.0000 C   0  0  0  0  0  0  0  0  0  0  0  0
   -2.5130    1.2865    0.0000 C   0  0  0  0  0  0  0  0  0  0  0  0
   -3.2569   -0.0160    0.0000 C   0  0  0  0  0  0  0  0  0  0  0  0
    0.6480   -1.0369    0.0000 H   0  0  0  0  0  0  0  0  0  0  0  0
  1  2  2  0  0  0  0
  1  6  1  0  0  0  0
  2  3  1  0  0  0  0
  3  4  2  0  0  0  0
  4  5  1  0  0  0  0
  5  6  2  0  0  0  0
  5 11  1  0  0  0  0
  6  7  1  0  0  0  0
  7  8  2  0  0  0  0
  8  9  1  0  0  0  0
  9 10  2  0  0  0  0
  9 11  1  0  0  0  0
  1 12  1  0  0  0  0
 13 14  1  0  0  0  0
 14 15  1  0  0  0  0
 14 16  1  6  0  0  0
 16 17  1  0  0  0  0
 16 18  1  0  0  0  0
 16 19  1  0  0  0  0
  2 15  1  0  0  0  0
  3 13  1  0  0  0  0
 20 21  1  0  0  0  0
 21 22  2  0  0  0  0
 21 23  1  0  0  0  0
 23 24  1  0  0  0  0
 23 25  1  0  0  0  0
 24 25  1  0  0  0  0
  4 24  1  0  0  0  0
 26 27  1  0  0  0  0
 26 28  1  0  0  0  0
 26 29  1  0  0  0  0
 29 30  2  0  0  0  0
  8 26  1  0  0  0  0
  7 31  1  0  0  0  0
M  END
> <score_KierA2>
0.516832

$$$$
suggested molecule #569
 MOE2019            2D

 31 34  0  0  1  0  0  0  0  0999 V2000
    3.4992   -1.2833    0.0000 C   0  0  0  0  0  0  0  0  0  1  0  0
    4.9992   -1.2762    0.0000 C   0  0  0  0  0  0  0  0  0  2  0  0
    5.7430    0.0263    0.0000 C   0  0  0  0  0  0  0  0  0  3  0  0
    4.9869    1.3218    0.0000 C   0  0  0  0  0  0  0  0  0  4  0  0
    3.4870    1.3147    0.0000 C   0  0  0  0  0  0  0  0  0  5  0  0
    2.7431    0.0122    0.0000 C   0  0  0  0  0  0  0  0  0  6  0  0
    1.2431    0.0051    0.0000 C   0  0  0  0  0  0  0  0  0  7  0  0
    0.4870    1.3006    0.0000 C   0  0  0  0  0  0  0  0  0  8  0  0
    1.2309    2.6032    0.0000 C   0  0  0  0  0  0  0  0  0  9  0  0
    0.4748    3.8987    0.0000 O   0  0  0  0  0  0  0  0  0 10  0  0
    2.7309    2.6102    0.0000 O   0  0  0  0  0  0  0  0  0 11  0  0
    2.9041   -2.3253    0.0000 H   0  0  0  0  0  0  0  0  0  0  0  0
    7.2117   -0.2787    0.0000 O   0  0  0  0  0  0  0  0  0  0  0  0
    7.3755   -1.7697    0.0000 C   0  0  1  0  0  0  0  0  0  0  0  0
    6.0081   -2.3862    0.0000 C   0  0  0  0  0  0  0  0  0  0  0  0
    8.6781   -2.5136    0.0000 C   0  0  0  0  0  0  0  0  0  0  0  0
    9.4220   -1.2110    0.0000 C   0  0  0  0  0  0  0  0  0  0  0  0
    7.9342   -3.8161    0.0000 C   0  0  0  0  0  0  0  0  0  0  0  0
    9.9806   -3.2575    0.0000 O   0  0  0  0  0  0  0  0  0  0  0  0
    9.2702    4.6901    0.0000 C   0  0  0  0  0  0  0  0  0  0  0  0
    8.5263    3.3875    0.0000 C   0  0  0  0  0  0  0  0  0  0  0  0
    9.2824    2.0920    0.0000 C   0  0  0  0  0  0  0  0  0  0  0  0
    7.0263    3.3805    0.0000 C   0  0  0  0  0  0  0  0  0  0  0  0
    5.7308    2.6244    0.0000 C   0  0  0  0  0  0  0  0  0  0  0  0
    5.7238    4.1243    0.0000 O   0  0  0  0  0  0  0  0  0  0  0  0
   -1.0130    1.2936    0.0000 C   0  0  0  0  0  0  0  0  0  0  0  0
   -1.0059   -0.2064    0.0000 C   0  0  0  0  0  0  0  0  0  0  0  0
   -1.0200    2.7936    0.0000 C   0  0  0  0  0  0  0  0  0  0  0  0
   -2.5130    1.2865    0.0000 C   0  0  0  0  0  0  0  0  0  0  0  0
   -3.2569   -0.0160    0.0000 C   0  0  0  0  0  0  0  0  0  0  0  0
    0.6480   -1.0369    0.0000 H   0  0  0  0  0  0  0  0  0  0  0  0
  1  2  2  0  0  0  0
  1  6  1  0  0  0  0
  2  3  1  0  0  0  0
  3  4  2  0  0  0  0
  4  5  1  0  0  0  0
  5  6  2  0  0  0  0
  5 11  1  0  0  0  0
  6  7  1  0  0  0  0
  7  8  2  0  0  0  0
  8  9  1  0  0  0  0
  9 10  2  0  0  0  0
  9 11  1  0  0  0  0
  1 12  1  0  0  0  0
 13 14  1  0  0  0  0
 14 15  1  0  0  0  0
 14 16  1  6  0  0  0
 16 17  1  0  0  0  0
 16 18  1  0  0  0  0
 16 19  1  0  0  0  0
  2 15  1  0  0  0  0
  3 13  1  0  0  0  0
 20 21  1  0  0  0  0
 21 22  2  0  0  0  0
 21 23  1  0  0  0  0
 23 24  1  0  0  0  0
 23 25  1  0  0  0  0
 24 25  1  0  0  0  0
  4 24  1  0  0  0  0
 26 27  1  0  0  0  0
 26 28  1  0  0  0  0
 26 29  1  0  0  0  0
 29 30  2  0  0  0  0
  8 26  1  0  0  0  0
  7 31  1  0  0  0  0
M  END
> <score_KierFlex>
0.516304

$$$$
suggested molecule #570
 MOE2019            2D

 32 35  0  0  1  0  0  0  0  0999 V2000
    3.4992   -1.2833    0.0000 C   0  0  0  0  0  0  0  0  0  1  0  0
    4.9992   -1.2762    0.0000 C   0  0  0  0  0  0  0  0  0  2  0  0
    5.7430    0.0263    0.0000 C   0  0  0  0  0  0  0  0  0  3  0  0
    4.9869    1.3218    0.0000 C   0  0  0  0  0  0  0  0  0  4  0  0
    3.4870    1.3147    0.0000 C   0  0  0  0  0  0  0  0  0  5  0  0
    2.7431    0.0122    0.0000 C   0  0  0  0  0  0  0  0  0  6  0  0
    1.2431    0.0051    0.0000 C   0  0  0  0  0  0  0  0  0  7  0  0
    0.4870    1.3006    0.0000 C   0  0  0  0  0  0  0  0  0  8  0  0
    1.2309    2.6032    0.0000 C   0  0  0  0  0  0  0  0  0  9  0  0
    0.4748    3.8987    0.0000 O   0  0  0  0  0  0  0  0  0 10  0  0
    2.7309    2.6102    0.0000 O   0  0  0  0  0  0  0  0  0 11  0  0
    2.9041   -2.3253    0.0000 H   0  0  0  0  0  0  0  0  0  0  0  0
    7.2117   -0.2787    0.0000 O   0  0  0  0  0  0  0  0  0  0  0  0
    7.3755   -1.7697    0.0000 C   0  0  1  0  0  0  0  0  0  0  0  0
    6.0081   -2.3862    0.0000 C   0  0  0  0  0  0  0  0  0  0  0  0
    8.6781   -2.5136    0.0000 C   0  0  0  0  0  0  0  0  0  0  0  0
    9.4220   -1.2110    0.0000 C   0  0  0  0  0  0  0  0  0  0  0  0
    9.9806   -3.2575    0.0000 C   0  0  0  0  0  0  0  0  0  0  0  0
    7.9342   -3.8161    0.0000 O   0  0  0  0  0  0  0  0  0  0  0  0
    8.2308    1.6782    0.0000 C   0  0  0  0  0  0  0  0  0  0  0  0
    7.2218    2.7882    0.0000 C   0  0  0  0  0  0  0  0  0  0  0  0
    5.7308    2.6244    0.0000 C   0  0  0  0  0  0  0  0  0  0  0  0
    5.1143    3.9918    0.0000 C   0  0  0  0  0  0  0  0  0  0  0  0
    3.6456    4.2968    0.0000 O   0  0  0  0  0  0  0  0  0  0  0  0
    6.2243    5.0007    0.0000 O   0  0  0  0  0  0  0  0  0  0  0  0
    7.5268    4.2568    0.0000 C   0  0  0  0  0  0  0  0  0  0  0  0
   -1.0130    1.2936    0.0000 C   0  0  0  0  0  0  0  0  0  0  0  0
   -1.0059   -0.2064    0.0000 C   0  0  0  0  0  0  0  0  0  0  0  0
   -1.0200    2.7936    0.0000 C   0  0  0  0  0  0  0  0  0  0  0  0
   -2.5130    1.2865    0.0000 C   0  0  0  0  0  0  0  0  0  0  0  0
   -3.2569   -0.0160    0.0000 C   0  0  0  0  0  0  0  0  0  0  0  0
    0.6480   -1.0369    0.0000 H   0  0  0  0  0  0  0  0  0  0  0  0
  1  2  2  0  0  0  0
  1  6  1  0  0  0  0
  2  3  1  0  0  0  0
  3  4  2  0  0  0  0
  4  5  1  0  0  0  0
  5  6  2  0  0  0  0
  5 11  1  0  0  0  0
  6  7  1  0  0  0  0
  7  8  2  0  0  0  0
  8  9  1  0  0  0  0
  9 10  2  0  0  0  0
  9 11  1  0  0  0  0
  1 12  1  0  0  0  0
 13 14  1  0  0  0  0
 14 15  1  0  0  0  0
 14 16  1  6  0  0  0
 16 17  1  0  0  0  0
 16 18  1  0  0  0  0
 16 19  1  0  0  0  0
  2 15  1  0  0  0  0
  3 13  1  0  0  0  0
 20 21  1  0  0  0  0
 21 22  2  0  0  0  0
 21 26  1  0  0  0  0
 22 23  1  0  0  0  0
 23 24  2  0  0  0  0
 23 25  1  0  0  0  0
 25 26  1  0  0  0  0
  4 22  1  0  0  0  0
 27 28  1  0  0  0  0
 27 29  1  0  0  0  0
 27 30  1  0  0  0  0
 30 31  2  0  0  0  0
  8 27  1  0  0  0  0
  7 32  1  0  0  0  0
M  END
> <score_Kier1>
0.517821

$$$$
suggested molecule #571
 MOE2019            2D

 32 35  0  0  1  0  0  0  0  0999 V2000
    3.4992   -1.2833    0.0000 C   0  0  0  0  0  0  0  0  0  1  0  0
    4.9992   -1.2762    0.0000 C   0  0  0  0  0  0  0  0  0  2  0  0
    5.7430    0.0263    0.0000 C   0  0  0  0  0  0  0  0  0  3  0  0
    4.9869    1.3218    0.0000 C   0  0  0  0  0  0  0  0  0  4  0  0
    3.4870    1.3147    0.0000 C   0  0  0  0  0  0  0  0  0  5  0  0
    2.7431    0.0122    0.0000 C   0  0  0  0  0  0  0  0  0  6  0  0
    1.2431    0.0051    0.0000 C   0  0  0  0  0  0  0  0  0  7  0  0
    0.4870    1.3006    0.0000 C   0  0  0  0  0  0  0  0  0  8  0  0
    1.2309    2.6032    0.0000 C   0  0  0  0  0  0  0  0  0  9  0  0
    0.4748    3.8987    0.0000 O   0  0  0  0  0  0  0  0  0 10  0  0
    2.7309    2.6102    0.0000 O   0  0  0  0  0  0  0  0  0 11  0  0
    2.9041   -2.3253    0.0000 H   0  0  0  0  0  0  0  0  0  0  0  0
    7.2117   -0.2787    0.0000 O   0  0  0  0  0  0  0  0  0  0  0  0
    7.3755   -1.7697    0.0000 C   0  0  1  0  0  0  0  0  0  0  0  0
    6.0081   -2.3862    0.0000 C   0  0  0  0  0  0  0  0  0  0  0  0
    8.6781   -2.5136    0.0000 C   0  0  0  0  0  0  0  0  0  0  0  0
    9.4220   -1.2110    0.0000 C   0  0  0  0  0  0  0  0  0  0  0  0
    9.9806   -3.2575    0.0000 C   0  0  0  0  0  0  0  0  0  0  0  0
    7.9342   -3.8161    0.0000 O   0  0  0  0  0  0  0  0  0  0  0  0
    8.2308    1.6782    0.0000 C   0  0  0  0  0  0  0  0  0  0  0  0
    7.2218    2.7882    0.0000 C   0  0  0  0  0  0  0  0  0  0  0  0
    5.7308    2.6244    0.0000 C   0  0  0  0  0  0  0  0  0  0  0  0
    5.1143    3.9918    0.0000 C   0  0  0  0  0  0  0  0  0  0  0  0
    3.6456    4.2968    0.0000 O   0  0  0  0  0  0  0  0  0  0  0  0
    6.2243    5.0007    0.0000 O   0  0  0  0  0  0  0  0  0  0  0  0
    7.5268    4.2568    0.0000 C   0  0  0  0  0  0  0  0  0  0  0  0
   -1.0130    1.2936    0.0000 C   0  0  0  0  0  0  0  0  0  0  0  0
   -1.0059   -0.2064    0.0000 C   0  0  0  0  0  0  0  0  0  0  0  0
   -1.0200    2.7936    0.0000 C   0  0  0  0  0  0  0  0  0  0  0  0
   -2.5130    1.2865    0.0000 C   0  0  0  0  0  0  0  0  0  0  0  0
   -3.2569   -0.0160    0.0000 C   0  0  0  0  0  0  0  0  0  0  0  0
    0.6480   -1.0369    0.0000 H   0  0  0  0  0  0  0  0  0  0  0  0
  1  2  2  0  0  0  0
  1  6  1  0  0  0  0
  2  3  1  0  0  0  0
  3  4  2  0  0  0  0
  4  5  1  0  0  0  0
  5  6  2  0  0  0  0
  5 11  1  0  0  0  0
  6  7  1  0  0  0  0
  7  8  2  0  0  0  0
  8  9  1  0  0  0  0
  9 10  2  0  0  0  0
  9 11  1  0  0  0  0
  1 12  1  0  0  0  0
 13 14  1  0  0  0  0
 14 15  1  0  0  0  0
 14 16  1  6  0  0  0
 16 17  1  0  0  0  0
 16 18  1  0  0  0  0
 16 19  1  0  0  0  0
  2 15  1  0  0  0  0
  3 13  1  0  0  0  0
 20 21  1  0  0  0  0
 21 22  2  0  0  0  0
 21 26  1  0  0  0  0
 22 23  1  0  0  0  0
 23 24  2  0  0  0  0
 23 25  1  0  0  0  0
 25 26  1  0  0  0  0
  4 22  1  0  0  0  0
 27 28  1  0  0  0  0
 27 29  1  0  0  0  0
 27 30  1  0  0  0  0
 30 31  2  0  0  0  0
  8 27  1  0  0  0  0
  7 32  1  0  0  0  0
M  END
> <score_Kier2>
0.516625

$$$$
suggested molecule #572
 MOE2019            2D

 32 35  0  0  1  0  0  0  0  0999 V2000
    3.4992   -1.2833    0.0000 C   0  0  0  0  0  0  0  0  0  1  0  0
    4.9992   -1.2762    0.0000 C   0  0  0  0  0  0  0  0  0  2  0  0
    5.7430    0.0263    0.0000 C   0  0  0  0  0  0  0  0  0  3  0  0
    4.9869    1.3218    0.0000 C   0  0  0  0  0  0  0  0  0  4  0  0
    3.4870    1.3147    0.0000 C   0  0  0  0  0  0  0  0  0  5  0  0
    2.7431    0.0122    0.0000 C   0  0  0  0  0  0  0  0  0  6  0  0
    1.2431    0.0051    0.0000 C   0  0  0  0  0  0  0  0  0  7  0  0
    0.4870    1.3006    0.0000 C   0  0  0  0  0  0  0  0  0  8  0  0
    1.2309    2.6032    0.0000 C   0  0  0  0  0  0  0  0  0  9  0  0
    0.4748    3.8987    0.0000 O   0  0  0  0  0  0  0  0  0 10  0  0
    2.7309    2.6102    0.0000 O   0  0  0  0  0  0  0  0  0 11  0  0
    2.9041   -2.3253    0.0000 H   0  0  0  0  0  0  0  0  0  0  0  0
    7.2117   -0.2787    0.0000 O   0  0  0  0  0  0  0  0  0  0  0  0
    7.3755   -1.7697    0.0000 C   0  0  1  0  0  0  0  0  0  0  0  0
    6.0081   -2.3862    0.0000 C   0  0  0  0  0  0  0  0  0  0  0  0
    8.6781   -2.5136    0.0000 C   0  0  0  0  0  0  0  0  0  0  0  0
    9.4220   -1.2110    0.0000 C   0  0  0  0  0  0  0  0  0  0  0  0
    9.9806   -3.2575    0.0000 C   0  0  0  0  0  0  0  0  0  0  0  0
    7.9342   -3.8161    0.0000 O   0  0  0  0  0  0  0  0  0  0  0  0
    8.2308    1.6782    0.0000 C   0  0  0  0  0  0  0  0  0  0  0  0
    7.2218    2.7882    0.0000 C   0  0  0  0  0  0  0  0  0  0  0  0
    5.7308    2.6244    0.0000 C   0  0  0  0  0  0  0  0  0  0  0  0
    5.1143    3.9918    0.0000 C   0  0  0  0  0  0  0  0  0  0  0  0
    3.6456    4.2968    0.0000 O   0  0  0  0  0  0  0  0  0  0  0  0
    6.2243    5.0007    0.0000 O   0  0  0  0  0  0  0  0  0  0  0  0
    7.5268    4.2568    0.0000 C   0  0  0  0  0  0  0  0  0  0  0  0
   -1.0130    1.2936    0.0000 C   0  0  0  0  0  0  0  0  0  0  0  0
   -1.0059   -0.2064    0.0000 C   0  0  0  0  0  0  0  0  0  0  0  0
   -1.0200    2.7936    0.0000 C   0  0  0  0  0  0  0  0  0  0  0  0
   -2.5130    1.2865    0.0000 C   0  0  0  0  0  0  0  0  0  0  0  0
   -3.2569   -0.0160    0.0000 C   0  0  0  0  0  0  0  0  0  0  0  0
    0.6480   -1.0369    0.0000 H   0  0  0  0  0  0  0  0  0  0  0  0
  1  2  2  0  0  0  0
  1  6  1  0  0  0  0
  2  3  1  0  0  0  0
  3  4  2  0  0  0  0
  4  5  1  0  0  0  0
  5  6  2  0  0  0  0
  5 11  1  0  0  0  0
  6  7  1  0  0  0  0
  7  8  2  0  0  0  0
  8  9  1  0  0  0  0
  9 10  2  0  0  0  0
  9 11  1  0  0  0  0
  1 12  1  0  0  0  0
 13 14  1  0  0  0  0
 14 15  1  0  0  0  0
 14 16  1  6  0  0  0
 16 17  1  0  0  0  0
 16 18  1  0  0  0  0
 16 19  1  0  0  0  0
  2 15  1  0  0  0  0
  3 13  1  0  0  0  0
 20 21  1  0  0  0  0
 21 22  2  0  0  0  0
 21 26  1  0  0  0  0
 22 23  1  0  0  0  0
 23 24  2  0  0  0  0
 23 25  1  0  0  0  0
 25 26  1  0  0  0  0
  4 22  1  0  0  0  0
 27 28  1  0  0  0  0
 27 29  1  0  0  0  0
 27 30  1  0  0  0  0
 30 31  2  0  0  0  0
  8 27  1  0  0  0  0
  7 32  1  0  0  0  0
M  END
> <score_KierA1>
0.517657

$$$$
suggested molecule #573
 MOE2019            2D

 32 35  0  0  1  0  0  0  0  0999 V2000
    3.4992   -1.2833    0.0000 C   0  0  0  0  0  0  0  0  0  1  0  0
    4.9992   -1.2762    0.0000 C   0  0  0  0  0  0  0  0  0  2  0  0
    5.7430    0.0263    0.0000 C   0  0  0  0  0  0  0  0  0  3  0  0
    4.9869    1.3218    0.0000 C   0  0  0  0  0  0  0  0  0  4  0  0
    3.4870    1.3147    0.0000 C   0  0  0  0  0  0  0  0  0  5  0  0
    2.7431    0.0122    0.0000 C   0  0  0  0  0  0  0  0  0  6  0  0
    1.2431    0.0051    0.0000 C   0  0  0  0  0  0  0  0  0  7  0  0
    0.4870    1.3006    0.0000 C   0  0  0  0  0  0  0  0  0  8  0  0
    1.2309    2.6032    0.0000 C   0  0  0  0  0  0  0  0  0  9  0  0
    0.4748    3.8987    0.0000 O   0  0  0  0  0  0  0  0  0 10  0  0
    2.7309    2.6102    0.0000 O   0  0  0  0  0  0  0  0  0 11  0  0
    2.9041   -2.3253    0.0000 H   0  0  0  0  0  0  0  0  0  0  0  0
    7.2117   -0.2787    0.0000 O   0  0  0  0  0  0  0  0  0  0  0  0
    7.3755   -1.7697    0.0000 C   0  0  1  0  0  0  0  0  0  0  0  0
    6.0081   -2.3862    0.0000 C   0  0  0  0  0  0  0  0  0  0  0  0
    8.6781   -2.5136    0.0000 C   0  0  0  0  0  0  0  0  0  0  0  0
    9.4220   -1.2110    0.0000 C   0  0  0  0  0  0  0  0  0  0  0  0
    9.9806   -3.2575    0.0000 C   0  0  0  0  0  0  0  0  0  0  0  0
    7.9342   -3.8161    0.0000 O   0  0  0  0  0  0  0  0  0  0  0  0
    8.2308    1.6782    0.0000 C   0  0  0  0  0  0  0  0  0  0  0  0
    7.2218    2.7882    0.0000 C   0  0  0  0  0  0  0  0  0  0  0  0
    5.7308    2.6244    0.0000 C   0  0  0  0  0  0  0  0  0  0  0  0
    5.1143    3.9918    0.0000 C   0  0  0  0  0  0  0  0  0  0  0  0
    3.6456    4.2968    0.0000 O   0  0  0  0  0  0  0  0  0  0  0  0
    6.2243    5.0007    0.0000 O   0  0  0  0  0  0  0  0  0  0  0  0
    7.5268    4.2568    0.0000 C   0  0  0  0  0  0  0  0  0  0  0  0
   -1.0130    1.2936    0.0000 C   0  0  0  0  0  0  0  0  0  0  0  0
   -1.0059   -0.2064    0.0000 C   0  0  0  0  0  0  0  0  0  0  0  0
   -1.0200    2.7936    0.0000 C   0  0  0  0  0  0  0  0  0  0  0  0
   -2.5130    1.2865    0.0000 C   0  0  0  0  0  0  0  0  0  0  0  0
   -3.2569   -0.0160    0.0000 C   0  0  0  0  0  0  0  0  0  0  0  0
    0.6480   -1.0369    0.0000 H   0  0  0  0  0  0  0  0  0  0  0  0
  1  2  2  0  0  0  0
  1  6  1  0  0  0  0
  2  3  1  0  0  0  0
  3  4  2  0  0  0  0
  4  5  1  0  0  0  0
  5  6  2  0  0  0  0
  5 11  1  0  0  0  0
  6  7  1  0  0  0  0
  7  8  2  0  0  0  0
  8  9  1  0  0  0  0
  9 10  2  0  0  0  0
  9 11  1  0  0  0  0
  1 12  1  0  0  0  0
 13 14  1  0  0  0  0
 14 15  1  0  0  0  0
 14 16  1  6  0  0  0
 16 17  1  0  0  0  0
 16 18  1  0  0  0  0
 16 19  1  0  0  0  0
  2 15  1  0  0  0  0
  3 13  1  0  0  0  0
 20 21  1  0  0  0  0
 21 22  2  0  0  0  0
 21 26  1  0  0  0  0
 22 23  1  0  0  0  0
 23 24  2  0  0  0  0
 23 25  1  0  0  0  0
 25 26  1  0  0  0  0
  4 22  1  0  0  0  0
 27 28  1  0  0  0  0
 27 29  1  0  0  0  0
 27 30  1  0  0  0  0
 30 31  2  0  0  0  0
  8 27  1  0  0  0  0
  7 32  1  0  0  0  0
M  END
> <score_KierA2>
0.516824

$$$$
suggested molecule #574
 MOE2019            2D

 32 35  0  0  1  0  0  0  0  0999 V2000
    3.4992   -1.2833    0.0000 C   0  0  0  0  0  0  0  0  0  1  0  0
    4.9992   -1.2762    0.0000 C   0  0  0  0  0  0  0  0  0  2  0  0
    5.7430    0.0263    0.0000 C   0  0  0  0  0  0  0  0  0  3  0  0
    4.9869    1.3218    0.0000 C   0  0  0  0  0  0  0  0  0  4  0  0
    3.4870    1.3147    0.0000 C   0  0  0  0  0  0  0  0  0  5  0  0
    2.7431    0.0122    0.0000 C   0  0  0  0  0  0  0  0  0  6  0  0
    1.2431    0.0051    0.0000 C   0  0  0  0  0  0  0  0  0  7  0  0
    0.4870    1.3006    0.0000 C   0  0  0  0  0  0  0  0  0  8  0  0
    1.2309    2.6032    0.0000 C   0  0  0  0  0  0  0  0  0  9  0  0
    0.4748    3.8987    0.0000 O   0  0  0  0  0  0  0  0  0 10  0  0
    2.7309    2.6102    0.0000 O   0  0  0  0  0  0  0  0  0 11  0  0
    2.9041   -2.3253    0.0000 H   0  0  0  0  0  0  0  0  0  0  0  0
    7.2117   -0.2787    0.0000 O   0  0  0  0  0  0  0  0  0  0  0  0
    7.3755   -1.7697    0.0000 C   0  0  1  0  0  0  0  0  0  0  0  0
    6.0081   -2.3862    0.0000 C   0  0  0  0  0  0  0  0  0  0  0  0
    8.6781   -2.5136    0.0000 C   0  0  0  0  0  0  0  0  0  0  0  0
    9.4220   -1.2110    0.0000 C   0  0  0  0  0  0  0  0  0  0  0  0
    9.9806   -3.2575    0.0000 C   0  0  0  0  0  0  0  0  0  0  0  0
    7.9342   -3.8161    0.0000 O   0  0  0  0  0  0  0  0  0  0  0  0
    8.2308    1.6782    0.0000 C   0  0  0  0  0  0  0  0  0  0  0  0
    7.2218    2.7882    0.0000 C   0  0  0  0  0  0  0  0  0  0  0  0
    5.7308    2.6244    0.0000 C   0  0  0  0  0  0  0  0  0  0  0  0
    5.1143    3.9918    0.0000 C   0  0  0  0  0  0  0  0  0  0  0  0
    3.6456    4.2968    0.0000 O   0  0  0  0  0  0  0  0  0  0  0  0
    6.2243    5.0007    0.0000 O   0  0  0  0  0  0  0  0  0  0  0  0
    7.5268    4.2568    0.0000 C   0  0  0  0  0  0  0  0  0  0  0  0
   -1.0130    1.2936    0.0000 C   0  0  0  0  0  0  0  0  0  0  0  0
   -1.0059   -0.2064    0.0000 C   0  0  0  0  0  0  0  0  0  0  0  0
   -1.0200    2.7936    0.0000 C   0  0  0  0  0  0  0  0  0  0  0  0
   -2.5130    1.2865    0.0000 C   0  0  0  0  0  0  0  0  0  0  0  0
   -3.2569   -0.0160    0.0000 C   0  0  0  0  0  0  0  0  0  0  0  0
    0.6480   -1.0369    0.0000 H   0  0  0  0  0  0  0  0  0  0  0  0
  1  2  2  0  0  0  0
  1  6  1  0  0  0  0
  2  3  1  0  0  0  0
  3  4  2  0  0  0  0
  4  5  1  0  0  0  0
  5  6  2  0  0  0  0
  5 11  1  0  0  0  0
  6  7  1  0  0  0  0
  7  8  2  0  0  0  0
  8  9  1  0  0  0  0
  9 10  2  0  0  0  0
  9 11  1  0  0  0  0
  1 12  1  0  0  0  0
 13 14  1  0  0  0  0
 14 15  1  0  0  0  0
 14 16  1  6  0  0  0
 16 17  1  0  0  0  0
 16 18  1  0  0  0  0
 16 19  1  0  0  0  0
  2 15  1  0  0  0  0
  3 13  1  0  0  0  0
 20 21  1  0  0  0  0
 21 22  2  0  0  0  0
 21 26  1  0  0  0  0
 22 23  1  0  0  0  0
 23 24  2  0  0  0  0
 23 25  1  0  0  0  0
 25 26  1  0  0  0  0
  4 22  1  0  0  0  0
 27 28  1  0  0  0  0
 27 29  1  0  0  0  0
 27 30  1  0  0  0  0
 30 31  2  0  0  0  0
  8 27  1  0  0  0  0
  7 32  1  0  0  0  0
M  END
> <score_KierFlex>
0.516299

$$$$
suggested molecule #575
 MOE2019            2D

 32 34  0  0  1  0  0  0  0  0999 V2000
    3.4992   -1.2833    0.0000 C   0  0  0  0  0  0  0  0  0  1  0  0
    4.9992   -1.2762    0.0000 C   0  0  0  0  0  0  0  0  0  2  0  0
    5.7430    0.0263    0.0000 C   0  0  0  0  0  0  0  0  0  3  0  0
    4.9869    1.3218    0.0000 C   0  0  0  0  0  0  0  0  0  4  0  0
    3.4870    1.3147    0.0000 C   0  0  0  0  0  0  0  0  0  5  0  0
    2.7431    0.0122    0.0000 C   0  0  0  0  0  0  0  0  0  6  0  0
    1.2431    0.0051    0.0000 C   0  0  0  0  0  0  0  0  0  7  0  0
    0.4870    1.3006    0.0000 C   0  0  0  0  0  0  0  0  0  8  0  0
    1.2309    2.6032    0.0000 C   0  0  0  0  0  0  0  0  0  9  0  0
    0.4748    3.8987    0.0000 O   0  0  0  0  0  0  0  0  0 10  0  0
    2.7309    2.6102    0.0000 O   0  0  0  0  0  0  0  0  0 11  0  0
    2.9041   -2.3253    0.0000 H   0  0  0  0  0  0  0  0  0  0  0  0
    7.2117   -0.2787    0.0000 O   0  0  0  0  0  0  0  0  0  0  0  0
    7.3755   -1.7697    0.0000 C   0  0  1  0  0  0  0  0  0  0  0  0
    6.0081   -2.3862    0.0000 C   0  0  0  0  0  0  0  0  0  0  0  0
    8.6781   -2.5136    0.0000 C   0  0  0  0  0  0  0  0  0  0  0  0
    9.9806   -3.2575    0.0000 C   0  0  0  0  0  0  0  0  0  0  0  0
    9.4220   -1.2110    0.0000 C   0  0  0  0  0  0  0  0  0  0  0  0
    7.9342   -3.8161    0.0000 O   0  0  0  0  0  0  0  0  0  0  0  0
    9.2772    3.1901    0.0000 C   0  0  0  0  0  0  0  0  0  0  0  0
    7.9747    3.9340    0.0000 C   0  0  0  0  0  0  0  0  0  0  0  0
    6.6721    4.6778    0.0000 C   0  0  0  0  0  0  0  0  0  0  0  0
    7.2308    2.6314    0.0000 C   0  0  0  0  0  0  0  0  0  0  0  0
    5.7308    2.6244    0.0000 C   0  0  0  0  0  0  0  0  0  0  0  0
    7.9869    1.3359    0.0000 O   0  0  0  0  0  0  0  0  0  0  0  0
    8.7186    5.2365    0.0000 O   0  0  0  0  0  0  0  0  0  0  0  0
   -1.0130    1.2936    0.0000 C   0  0  0  0  0  0  0  0  0  0  0  0
   -1.0200    2.7936    0.0000 C   0  0  0  0  0  0  0  0  0  0  0  0
   -1.0059   -0.2064    0.0000 C   0  0  0  0  0  0  0  0  0  0  0  0
   -2.5130    1.2865    0.0000 C   0  0  0  0  0  0  0  0  0  0  0  0
   -3.2569   -0.0160    0.0000 C   0  0  0  0  0  0  0  0  0  0  0  0
    0.6480   -1.0369    0.0000 H   0  0  0  0  0  0  0  0  0  0  0  0
  1  2  2  0  0  0  0
  1  6  1  0  0  0  0
  2  3  1  0  0  0  0
  3  4  2  0  0  0  0
  4  5  1  0  0  0  0
  5  6  2  0  0  0  0
  5 11  1  0  0  0  0
  6  7  1  0  0  0  0
  7  8  2  0  0  0  0
  8  9  1  0  0  0  0
  9 10  2  0  0  0  0
  9 11  1  0  0  0  0
  1 12  1  0  0  0  0
 13 14  1  0  0  0  0
 14 15  1  0  0  0  0
 14 16  1  6  0  0  0
 16 17  1  0  0  0  0
 16 18  1  0  0  0  0
 16 19  1  0  0  0  0
  2 15  1  0  0  0  0
  3 13  1  0  0  0  0
 20 21  1  0  0  0  0
 21 22  1  0  0  0  0
 21 23  1  0  0  0  0
 21 26  1  0  0  0  0
 23 24  1  0  0  0  0
 23 25  1  0  0  0  0
  4 24  1  0  0  0  0
 27 28  1  0  0  0  0
 27 29  1  0  0  0  0
 27 30  1  0  0  0  0
 30 31  2  0  0  0  0
  8 27  1  0  0  0  0
  7 32  1  0  0  0  0
M  END
> <score_Kier1>
0.517809

$$$$
suggested molecule #576
 MOE2019            2D

 32 34  0  0  1  0  0  0  0  0999 V2000
    3.4992   -1.2833    0.0000 C   0  0  0  0  0  0  0  0  0  1  0  0
    4.9992   -1.2762    0.0000 C   0  0  0  0  0  0  0  0  0  2  0  0
    5.7430    0.0263    0.0000 C   0  0  0  0  0  0  0  0  0  3  0  0
    4.9869    1.3218    0.0000 C   0  0  0  0  0  0  0  0  0  4  0  0
    3.4870    1.3147    0.0000 C   0  0  0  0  0  0  0  0  0  5  0  0
    2.7431    0.0122    0.0000 C   0  0  0  0  0  0  0  0  0  6  0  0
    1.2431    0.0051    0.0000 C   0  0  0  0  0  0  0  0  0  7  0  0
    0.4870    1.3006    0.0000 C   0  0  0  0  0  0  0  0  0  8  0  0
    1.2309    2.6032    0.0000 C   0  0  0  0  0  0  0  0  0  9  0  0
    0.4748    3.8987    0.0000 O   0  0  0  0  0  0  0  0  0 10  0  0
    2.7309    2.6102    0.0000 O   0  0  0  0  0  0  0  0  0 11  0  0
    2.9041   -2.3253    0.0000 H   0  0  0  0  0  0  0  0  0  0  0  0
    7.2117   -0.2787    0.0000 O   0  0  0  0  0  0  0  0  0  0  0  0
    7.3755   -1.7697    0.0000 C   0  0  1  0  0  0  0  0  0  0  0  0
    6.0081   -2.3862    0.0000 C   0  0  0  0  0  0  0  0  0  0  0  0
    8.6781   -2.5136    0.0000 C   0  0  0  0  0  0  0  0  0  0  0  0
    9.9806   -3.2575    0.0000 C   0  0  0  0  0  0  0  0  0  0  0  0
    9.4220   -1.2110    0.0000 C   0  0  0  0  0  0  0  0  0  0  0  0
    7.9342   -3.8161    0.0000 O   0  0  0  0  0  0  0  0  0  0  0  0
    9.2772    3.1901    0.0000 C   0  0  0  0  0  0  0  0  0  0  0  0
    7.9747    3.9340    0.0000 C   0  0  0  0  0  0  0  0  0  0  0  0
    6.6721    4.6778    0.0000 C   0  0  0  0  0  0  0  0  0  0  0  0
    7.2308    2.6314    0.0000 C   0  0  0  0  0  0  0  0  0  0  0  0
    5.7308    2.6244    0.0000 C   0  0  0  0  0  0  0  0  0  0  0  0
    7.9869    1.3359    0.0000 O   0  0  0  0  0  0  0  0  0  0  0  0
    8.7186    5.2365    0.0000 O   0  0  0  0  0  0  0  0  0  0  0  0
   -1.0130    1.2936    0.0000 C   0  0  0  0  0  0  0  0  0  0  0  0
   -1.0200    2.7936    0.0000 C   0  0  0  0  0  0  0  0  0  0  0  0
   -1.0059   -0.2064    0.0000 C   0  0  0  0  0  0  0  0  0  0  0  0
   -2.5130    1.2865    0.0000 C   0  0  0  0  0  0  0  0  0  0  0  0
   -3.2569   -0.0160    0.0000 C   0  0  0  0  0  0  0  0  0  0  0  0
    0.6480   -1.0369    0.0000 H   0  0  0  0  0  0  0  0  0  0  0  0
  1  2  2  0  0  0  0
  1  6  1  0  0  0  0
  2  3  1  0  0  0  0
  3  4  2  0  0  0  0
  4  5  1  0  0  0  0
  5  6  2  0  0  0  0
  5 11  1  0  0  0  0
  6  7  1  0  0  0  0
  7  8  2  0  0  0  0
  8  9  1  0  0  0  0
  9 10  2  0  0  0  0
  9 11  1  0  0  0  0
  1 12  1  0  0  0  0
 13 14  1  0  0  0  0
 14 15  1  0  0  0  0
 14 16  1  6  0  0  0
 16 17  1  0  0  0  0
 16 18  1  0  0  0  0
 16 19  1  0  0  0  0
  2 15  1  0  0  0  0
  3 13  1  0  0  0  0
 20 21  1  0  0  0  0
 21 22  1  0  0  0  0
 21 23  1  0  0  0  0
 21 26  1  0  0  0  0
 23 24  1  0  0  0  0
 23 25  1  0  0  0  0
  4 24  1  0  0  0  0
 27 28  1  0  0  0  0
 27 29  1  0  0  0  0
 27 30  1  0  0  0  0
 30 31  2  0  0  0  0
  8 27  1  0  0  0  0
  7 32  1  0  0  0  0
M  END
> <score_Kier2>
0.516617

$$$$
suggested molecule #577
 MOE2019            2D

 32 34  0  0  1  0  0  0  0  0999 V2000
    3.4992   -1.2833    0.0000 C   0  0  0  0  0  0  0  0  0  1  0  0
    4.9992   -1.2762    0.0000 C   0  0  0  0  0  0  0  0  0  2  0  0
    5.7430    0.0263    0.0000 C   0  0  0  0  0  0  0  0  0  3  0  0
    4.9869    1.3218    0.0000 C   0  0  0  0  0  0  0  0  0  4  0  0
    3.4870    1.3147    0.0000 C   0  0  0  0  0  0  0  0  0  5  0  0
    2.7431    0.0122    0.0000 C   0  0  0  0  0  0  0  0  0  6  0  0
    1.2431    0.0051    0.0000 C   0  0  0  0  0  0  0  0  0  7  0  0
    0.4870    1.3006    0.0000 C   0  0  0  0  0  0  0  0  0  8  0  0
    1.2309    2.6032    0.0000 C   0  0  0  0  0  0  0  0  0  9  0  0
    0.4748    3.8987    0.0000 O   0  0  0  0  0  0  0  0  0 10  0  0
    2.7309    2.6102    0.0000 O   0  0  0  0  0  0  0  0  0 11  0  0
    2.9041   -2.3253    0.0000 H   0  0  0  0  0  0  0  0  0  0  0  0
    7.2117   -0.2787    0.0000 O   0  0  0  0  0  0  0  0  0  0  0  0
    7.3755   -1.7697    0.0000 C   0  0  1  0  0  0  0  0  0  0  0  0
    6.0081   -2.3862    0.0000 C   0  0  0  0  0  0  0  0  0  0  0  0
    8.6781   -2.5136    0.0000 C   0  0  0  0  0  0  0  0  0  0  0  0
    9.9806   -3.2575    0.0000 C   0  0  0  0  0  0  0  0  0  0  0  0
    9.4220   -1.2110    0.0000 C   0  0  0  0  0  0  0  0  0  0  0  0
    7.9342   -3.8161    0.0000 O   0  0  0  0  0  0  0  0  0  0  0  0
    9.2772    3.1901    0.0000 C   0  0  0  0  0  0  0  0  0  0  0  0
    7.9747    3.9340    0.0000 C   0  0  0  0  0  0  0  0  0  0  0  0
    6.6721    4.6778    0.0000 C   0  0  0  0  0  0  0  0  0  0  0  0
    7.2308    2.6314    0.0000 C   0  0  0  0  0  0  0  0  0  0  0  0
    5.7308    2.6244    0.0000 C   0  0  0  0  0  0  0  0  0  0  0  0
    7.9869    1.3359    0.0000 O   0  0  0  0  0  0  0  0  0  0  0  0
    8.7186    5.2365    0.0000 O   0  0  0  0  0  0  0  0  0  0  0  0
   -1.0130    1.2936    0.0000 C   0  0  0  0  0  0  0  0  0  0  0  0
   -1.0200    2.7936    0.0000 C   0  0  0  0  0  0  0  0  0  0  0  0
   -1.0059   -0.2064    0.0000 C   0  0  0  0  0  0  0  0  0  0  0  0
   -2.5130    1.2865    0.0000 C   0  0  0  0  0  0  0  0  0  0  0  0
   -3.2569   -0.0160    0.0000 C   0  0  0  0  0  0  0  0  0  0  0  0
    0.6480   -1.0369    0.0000 H   0  0  0  0  0  0  0  0  0  0  0  0
  1  2  2  0  0  0  0
  1  6  1  0  0  0  0
  2  3  1  0  0  0  0
  3  4  2  0  0  0  0
  4  5  1  0  0  0  0
  5  6  2  0  0  0  0
  5 11  1  0  0  0  0
  6  7  1  0  0  0  0
  7  8  2  0  0  0  0
  8  9  1  0  0  0  0
  9 10  2  0  0  0  0
  9 11  1  0  0  0  0
  1 12  1  0  0  0  0
 13 14  1  0  0  0  0
 14 15  1  0  0  0  0
 14 16  1  6  0  0  0
 16 17  1  0  0  0  0
 16 18  1  0  0  0  0
 16 19  1  0  0  0  0
  2 15  1  0  0  0  0
  3 13  1  0  0  0  0
 20 21  1  0  0  0  0
 21 22  1  0  0  0  0
 21 23  1  0  0  0  0
 21 26  1  0  0  0  0
 23 24  1  0  0  0  0
 23 25  1  0  0  0  0
  4 24  1  0  0  0  0
 27 28  1  0  0  0  0
 27 29  1  0  0  0  0
 27 30  1  0  0  0  0
 30 31  2  0  0  0  0
  8 27  1  0  0  0  0
  7 32  1  0  0  0  0
M  END
> <score_KierA1>
0.517634

$$$$
suggested molecule #578
 MOE2019            2D

 32 34  0  0  1  0  0  0  0  0999 V2000
    3.4992   -1.2833    0.0000 C   0  0  0  0  0  0  0  0  0  1  0  0
    4.9992   -1.2762    0.0000 C   0  0  0  0  0  0  0  0  0  2  0  0
    5.7430    0.0263    0.0000 C   0  0  0  0  0  0  0  0  0  3  0  0
    4.9869    1.3218    0.0000 C   0  0  0  0  0  0  0  0  0  4  0  0
    3.4870    1.3147    0.0000 C   0  0  0  0  0  0  0  0  0  5  0  0
    2.7431    0.0122    0.0000 C   0  0  0  0  0  0  0  0  0  6  0  0
    1.2431    0.0051    0.0000 C   0  0  0  0  0  0  0  0  0  7  0  0
    0.4870    1.3006    0.0000 C   0  0  0  0  0  0  0  0  0  8  0  0
    1.2309    2.6032    0.0000 C   0  0  0  0  0  0  0  0  0  9  0  0
    0.4748    3.8987    0.0000 O   0  0  0  0  0  0  0  0  0 10  0  0
    2.7309    2.6102    0.0000 O   0  0  0  0  0  0  0  0  0 11  0  0
    2.9041   -2.3253    0.0000 H   0  0  0  0  0  0  0  0  0  0  0  0
    7.2117   -0.2787    0.0000 O   0  0  0  0  0  0  0  0  0  0  0  0
    7.3755   -1.7697    0.0000 C   0  0  1  0  0  0  0  0  0  0  0  0
    6.0081   -2.3862    0.0000 C   0  0  0  0  0  0  0  0  0  0  0  0
    8.6781   -2.5136    0.0000 C   0  0  0  0  0  0  0  0  0  0  0  0
    9.9806   -3.2575    0.0000 C   0  0  0  0  0  0  0  0  0  0  0  0
    9.4220   -1.2110    0.0000 C   0  0  0  0  0  0  0  0  0  0  0  0
    7.9342   -3.8161    0.0000 O   0  0  0  0  0  0  0  0  0  0  0  0
    9.2772    3.1901    0.0000 C   0  0  0  0  0  0  0  0  0  0  0  0
    7.9747    3.9340    0.0000 C   0  0  0  0  0  0  0  0  0  0  0  0
    6.6721    4.6778    0.0000 C   0  0  0  0  0  0  0  0  0  0  0  0
    7.2308    2.6314    0.0000 C   0  0  0  0  0  0  0  0  0  0  0  0
    5.7308    2.6244    0.0000 C   0  0  0  0  0  0  0  0  0  0  0  0
    7.9869    1.3359    0.0000 O   0  0  0  0  0  0  0  0  0  0  0  0
    8.7186    5.2365    0.0000 O   0  0  0  0  0  0  0  0  0  0  0  0
   -1.0130    1.2936    0.0000 C   0  0  0  0  0  0  0  0  0  0  0  0
   -1.0200    2.7936    0.0000 C   0  0  0  0  0  0  0  0  0  0  0  0
   -1.0059   -0.2064    0.0000 C   0  0  0  0  0  0  0  0  0  0  0  0
   -2.5130    1.2865    0.0000 C   0  0  0  0  0  0  0  0  0  0  0  0
   -3.2569   -0.0160    0.0000 C   0  0  0  0  0  0  0  0  0  0  0  0
    0.6480   -1.0369    0.0000 H   0  0  0  0  0  0  0  0  0  0  0  0
  1  2  2  0  0  0  0
  1  6  1  0  0  0  0
  2  3  1  0  0  0  0
  3  4  2  0  0  0  0
  4  5  1  0  0  0  0
  5  6  2  0  0  0  0
  5 11  1  0  0  0  0
  6  7  1  0  0  0  0
  7  8  2  0  0  0  0
  8  9  1  0  0  0  0
  9 10  2  0  0  0  0
  9 11  1  0  0  0  0
  1 12  1  0  0  0  0
 13 14  1  0  0  0  0
 14 15  1  0  0  0  0
 14 16  1  6  0  0  0
 16 17  1  0  0  0  0
 16 18  1  0  0  0  0
 16 19  1  0  0  0  0
  2 15  1  0  0  0  0
  3 13  1  0  0  0  0
 20 21  1  0  0  0  0
 21 22  1  0  0  0  0
 21 23  1  0  0  0  0
 21 26  1  0  0  0  0
 23 24  1  0  0  0  0
 23 25  1  0  0  0  0
  4 24  1  0  0  0  0
 27 28  1  0  0  0  0
 27 29  1  0  0  0  0
 27 30  1  0  0  0  0
 30 31  2  0  0  0  0
  8 27  1  0  0  0  0
  7 32  1  0  0  0  0
M  END
> <score_KierA2>
0.516806

$$$$
suggested molecule #579
 MOE2019            2D

 32 34  0  0  1  0  0  0  0  0999 V2000
    3.4992   -1.2833    0.0000 C   0  0  0  0  0  0  0  0  0  1  0  0
    4.9992   -1.2762    0.0000 C   0  0  0  0  0  0  0  0  0  2  0  0
    5.7430    0.0263    0.0000 C   0  0  0  0  0  0  0  0  0  3  0  0
    4.9869    1.3218    0.0000 C   0  0  0  0  0  0  0  0  0  4  0  0
    3.4870    1.3147    0.0000 C   0  0  0  0  0  0  0  0  0  5  0  0
    2.7431    0.0122    0.0000 C   0  0  0  0  0  0  0  0  0  6  0  0
    1.2431    0.0051    0.0000 C   0  0  0  0  0  0  0  0  0  7  0  0
    0.4870    1.3006    0.0000 C   0  0  0  0  0  0  0  0  0  8  0  0
    1.2309    2.6032    0.0000 C   0  0  0  0  0  0  0  0  0  9  0  0
    0.4748    3.8987    0.0000 O   0  0  0  0  0  0  0  0  0 10  0  0
    2.7309    2.6102    0.0000 O   0  0  0  0  0  0  0  0  0 11  0  0
    2.9041   -2.3253    0.0000 H   0  0  0  0  0  0  0  0  0  0  0  0
    7.2117   -0.2787    0.0000 O   0  0  0  0  0  0  0  0  0  0  0  0
    7.3755   -1.7697    0.0000 C   0  0  1  0  0  0  0  0  0  0  0  0
    6.0081   -2.3862    0.0000 C   0  0  0  0  0  0  0  0  0  0  0  0
    8.6781   -2.5136    0.0000 C   0  0  0  0  0  0  0  0  0  0  0  0
    9.9806   -3.2575    0.0000 C   0  0  0  0  0  0  0  0  0  0  0  0
    9.4220   -1.2110    0.0000 C   0  0  0  0  0  0  0  0  0  0  0  0
    7.9342   -3.8161    0.0000 O   0  0  0  0  0  0  0  0  0  0  0  0
    9.2772    3.1901    0.0000 C   0  0  0  0  0  0  0  0  0  0  0  0
    7.9747    3.9340    0.0000 C   0  0  0  0  0  0  0  0  0  0  0  0
    6.6721    4.6778    0.0000 C   0  0  0  0  0  0  0  0  0  0  0  0
    7.2308    2.6314    0.0000 C   0  0  0  0  0  0  0  0  0  0  0  0
    5.7308    2.6244    0.0000 C   0  0  0  0  0  0  0  0  0  0  0  0
    7.9869    1.3359    0.0000 O   0  0  0  0  0  0  0  0  0  0  0  0
    8.7186    5.2365    0.0000 O   0  0  0  0  0  0  0  0  0  0  0  0
   -1.0130    1.2936    0.0000 C   0  0  0  0  0  0  0  0  0  0  0  0
   -1.0200    2.7936    0.0000 C   0  0  0  0  0  0  0  0  0  0  0  0
   -1.0059   -0.2064    0.0000 C   0  0  0  0  0  0  0  0  0  0  0  0
   -2.5130    1.2865    0.0000 C   0  0  0  0  0  0  0  0  0  0  0  0
   -3.2569   -0.0160    0.0000 C   0  0  0  0  0  0  0  0  0  0  0  0
    0.6480   -1.0369    0.0000 H   0  0  0  0  0  0  0  0  0  0  0  0
  1  2  2  0  0  0  0
  1  6  1  0  0  0  0
  2  3  1  0  0  0  0
  3  4  2  0  0  0  0
  4  5  1  0  0  0  0
  5  6  2  0  0  0  0
  5 11  1  0  0  0  0
  6  7  1  0  0  0  0
  7  8  2  0  0  0  0
  8  9  1  0  0  0  0
  9 10  2  0  0  0  0
  9 11  1  0  0  0  0
  1 12  1  0  0  0  0
 13 14  1  0  0  0  0
 14 15  1  0  0  0  0
 14 16  1  6  0  0  0
 16 17  1  0  0  0  0
 16 18  1  0  0  0  0
 16 19  1  0  0  0  0
  2 15  1  0  0  0  0
  3 13  1  0  0  0  0
 20 21  1  0  0  0  0
 21 22  1  0  0  0  0
 21 23  1  0  0  0  0
 21 26  1  0  0  0  0
 23 24  1  0  0  0  0
 23 25  1  0  0  0  0
  4 24  1  0  0  0  0
 27 28  1  0  0  0  0
 27 29  1  0  0  0  0
 27 30  1  0  0  0  0
 30 31  2  0  0  0  0
  8 27  1  0  0  0  0
  7 32  1  0  0  0  0
M  END
> <score_KierFlex>
0.516261

$$$$
suggested molecule #580
 MOE2019            2D

 33 35  0  0  1  0  0  0  0  0999 V2000
    3.4992   -1.2833    0.0000 C   0  0  0  0  0  0  0  0  0  1  0  0
    4.9992   -1.2762    0.0000 C   0  0  0  0  0  0  0  0  0  2  0  0
    5.7430    0.0263    0.0000 C   0  0  0  0  0  0  0  0  0  3  0  0
    4.9869    1.3218    0.0000 C   0  0  0  0  0  0  0  0  0  4  0  0
    3.4870    1.3147    0.0000 C   0  0  0  0  0  0  0  0  0  5  0  0
    2.7431    0.0122    0.0000 C   0  0  0  0  0  0  0  0  0  6  0  0
    1.2431    0.0051    0.0000 C   0  0  0  0  0  0  0  0  0  7  0  0
    0.4870    1.3006    0.0000 C   0  0  0  0  0  0  0  0  0  8  0  0
    1.2309    2.6032    0.0000 C   0  0  0  0  0  0  0  0  0  9  0  0
    0.4748    3.8987    0.0000 O   0  0  0  0  0  0  0  0  0 10  0  0
    2.7309    2.6102    0.0000 O   0  0  0  0  0  0  0  0  0 11  0  0
    2.9041   -2.3253    0.0000 H   0  0  0  0  0  0  0  0  0  0  0  0
    7.2117   -0.2787    0.0000 O   0  0  0  0  0  0  0  0  0  0  0  0
    7.3755   -1.7697    0.0000 C   0  0  1  0  0  0  0  0  0  0  0  0
    6.0081   -2.3862    0.0000 C   0  0  0  0  0  0  0  0  0  0  0  0
    8.6781   -2.5136    0.0000 C   0  0  0  0  0  0  0  0  0  0  0  0
    9.4220   -1.2110    0.0000 C   0  0  0  0  0  0  0  0  0  0  0  0
    9.9806   -3.2575    0.0000 C   0  0  0  0  0  0  0  0  0  0  0  0
    7.9342   -3.8161    0.0000 O   0  0  0  0  0  0  0  0  0  0  0  0
    7.2186    5.2295    0.0000 C   0  0  0  0  0  0  0  0  0  0  0  0
    7.9747    3.9340    0.0000 C   0  0  0  0  0  0  0  0  0  0  0  0
    9.4747    3.9410    0.0000 C   0  0  0  0  0  0  0  0  0  0  0  0
    7.2308    2.6314    0.0000 C   0  0  0  0  0  0  0  0  0  0  0  0
    5.7308    2.6244    0.0000 C   0  0  0  0  0  0  0  0  0  0  0  0
    4.9747    3.9198    0.0000 O   0  0  0  0  0  0  0  0  0  0  0  0
    5.7186    5.2224    0.0000 C   0  0  0  0  0  0  0  0  0  0  0  0
    7.9869    1.3359    0.0000 O   0  0  0  0  0  0  0  0  0  0  0  0
   -1.0130    1.2936    0.0000 C   0  0  0  0  0  0  0  0  0  0  0  0
   -1.0059   -0.2064    0.0000 C   0  0  0  0  0  0  0  0  0  0  0  0
   -1.0200    2.7936    0.0000 C   0  0  0  0  0  0  0  0  0  0  0  0
   -2.5130    1.2865    0.0000 C   0  0  0  0  0  0  0  0  0  0  0  0
   -3.2569   -0.0160    0.0000 C   0  0  0  0  0  0  0  0  0  0  0  0
    0.6480   -1.0369    0.0000 H   0  0  0  0  0  0  0  0  0  0  0  0
  1  2  2  0  0  0  0
  1  6  1  0  0  0  0
  2  3  1  0  0  0  0
  3  4  2  0  0  0  0
  4  5  1  0  0  0  0
  5  6  2  0  0  0  0
  5 11  1  0  0  0  0
  6  7  1  0  0  0  0
  7  8  2  0  0  0  0
  8  9  1  0  0  0  0
  9 10  2  0  0  0  0
  9 11  1  0  0  0  0
  1 12  1  0  0  0  0
 13 14  1  0  0  0  0
 14 15  1  0  0  0  0
 14 16  1  6  0  0  0
 16 17  1  0  0  0  0
 16 18  1  0  0  0  0
 16 19  1  0  0  0  0
  2 15  1  0  0  0  0
  3 13  1  0  0  0  0
 20 21  1  0  0  0  0
 21 22  2  0  0  0  0
 21 23  1  0  0  0  0
 23 24  1  0  0  0  0
 23 27  1  0  0  0  0
 24 25  1  0  0  0  0
 25 26  1  0  0  0  0
  4 24  1  0  0  0  0
 28 29  1  0  0  0  0
 28 30  1  0  0  0  0
 28 31  1  0  0  0  0
 31 32  2  0  0  0  0
  8 28  1  0  0  0  0
  7 33  1  0  0  0  0
M  END
> <score_Kier1>
0.517801

$$$$
suggested molecule #581
 MOE2019            2D

 33 35  0  0  1  0  0  0  0  0999 V2000
    3.4992   -1.2833    0.0000 C   0  0  0  0  0  0  0  0  0  1  0  0
    4.9992   -1.2762    0.0000 C   0  0  0  0  0  0  0  0  0  2  0  0
    5.7430    0.0263    0.0000 C   0  0  0  0  0  0  0  0  0  3  0  0
    4.9869    1.3218    0.0000 C   0  0  0  0  0  0  0  0  0  4  0  0
    3.4870    1.3147    0.0000 C   0  0  0  0  0  0  0  0  0  5  0  0
    2.7431    0.0122    0.0000 C   0  0  0  0  0  0  0  0  0  6  0  0
    1.2431    0.0051    0.0000 C   0  0  0  0  0  0  0  0  0  7  0  0
    0.4870    1.3006    0.0000 C   0  0  0  0  0  0  0  0  0  8  0  0
    1.2309    2.6032    0.0000 C   0  0  0  0  0  0  0  0  0  9  0  0
    0.4748    3.8987    0.0000 O   0  0  0  0  0  0  0  0  0 10  0  0
    2.7309    2.6102    0.0000 O   0  0  0  0  0  0  0  0  0 11  0  0
    2.9041   -2.3253    0.0000 H   0  0  0  0  0  0  0  0  0  0  0  0
    7.2117   -0.2787    0.0000 O   0  0  0  0  0  0  0  0  0  0  0  0
    7.3755   -1.7697    0.0000 C   0  0  1  0  0  0  0  0  0  0  0  0
    6.0081   -2.3862    0.0000 C   0  0  0  0  0  0  0  0  0  0  0  0
    8.6781   -2.5136    0.0000 C   0  0  0  0  0  0  0  0  0  0  0  0
    9.4220   -1.2110    0.0000 C   0  0  0  0  0  0  0  0  0  0  0  0
    9.9806   -3.2575    0.0000 C   0  0  0  0  0  0  0  0  0  0  0  0
    7.9342   -3.8161    0.0000 O   0  0  0  0  0  0  0  0  0  0  0  0
    7.2186    5.2295    0.0000 C   0  0  0  0  0  0  0  0  0  0  0  0
    7.9747    3.9340    0.0000 C   0  0  0  0  0  0  0  0  0  0  0  0
    9.4747    3.9410    0.0000 C   0  0  0  0  0  0  0  0  0  0  0  0
    7.2308    2.6314    0.0000 C   0  0  0  0  0  0  0  0  0  0  0  0
    5.7308    2.6244    0.0000 C   0  0  0  0  0  0  0  0  0  0  0  0
    4.9747    3.9198    0.0000 O   0  0  0  0  0  0  0  0  0  0  0  0
    5.7186    5.2224    0.0000 C   0  0  0  0  0  0  0  0  0  0  0  0
    7.9869    1.3359    0.0000 O   0  0  0  0  0  0  0  0  0  0  0  0
   -1.0130    1.2936    0.0000 C   0  0  0  0  0  0  0  0  0  0  0  0
   -1.0059   -0.2064    0.0000 C   0  0  0  0  0  0  0  0  0  0  0  0
   -1.0200    2.7936    0.0000 C   0  0  0  0  0  0  0  0  0  0  0  0
   -2.5130    1.2865    0.0000 C   0  0  0  0  0  0  0  0  0  0  0  0
   -3.2569   -0.0160    0.0000 C   0  0  0  0  0  0  0  0  0  0  0  0
    0.6480   -1.0369    0.0000 H   0  0  0  0  0  0  0  0  0  0  0  0
  1  2  2  0  0  0  0
  1  6  1  0  0  0  0
  2  3  1  0  0  0  0
  3  4  2  0  0  0  0
  4  5  1  0  0  0  0
  5  6  2  0  0  0  0
  5 11  1  0  0  0  0
  6  7  1  0  0  0  0
  7  8  2  0  0  0  0
  8  9  1  0  0  0  0
  9 10  2  0  0  0  0
  9 11  1  0  0  0  0
  1 12  1  0  0  0  0
 13 14  1  0  0  0  0
 14 15  1  0  0  0  0
 14 16  1  6  0  0  0
 16 17  1  0  0  0  0
 16 18  1  0  0  0  0
 16 19  1  0  0  0  0
  2 15  1  0  0  0  0
  3 13  1  0  0  0  0
 20 21  1  0  0  0  0
 21 22  2  0  0  0  0
 21 23  1  0  0  0  0
 23 24  1  0  0  0  0
 23 27  1  0  0  0  0
 24 25  1  0  0  0  0
 25 26  1  0  0  0  0
  4 24  1  0  0  0  0
 28 29  1  0  0  0  0
 28 30  1  0  0  0  0
 28 31  1  0  0  0  0
 31 32  2  0  0  0  0
  8 28  1  0  0  0  0
  7 33  1  0  0  0  0
M  END
> <score_Kier2>
0.516599

$$$$
suggested molecule #582
 MOE2019            2D

 33 35  0  0  1  0  0  0  0  0999 V2000
    3.4992   -1.2833    0.0000 C   0  0  0  0  0  0  0  0  0  1  0  0
    4.9992   -1.2762    0.0000 C   0  0  0  0  0  0  0  0  0  2  0  0
    5.7430    0.0263    0.0000 C   0  0  0  0  0  0  0  0  0  3  0  0
    4.9869    1.3218    0.0000 C   0  0  0  0  0  0  0  0  0  4  0  0
    3.4870    1.3147    0.0000 C   0  0  0  0  0  0  0  0  0  5  0  0
    2.7431    0.0122    0.0000 C   0  0  0  0  0  0  0  0  0  6  0  0
    1.2431    0.0051    0.0000 C   0  0  0  0  0  0  0  0  0  7  0  0
    0.4870    1.3006    0.0000 C   0  0  0  0  0  0  0  0  0  8  0  0
    1.2309    2.6032    0.0000 C   0  0  0  0  0  0  0  0  0  9  0  0
    0.4748    3.8987    0.0000 O   0  0  0  0  0  0  0  0  0 10  0  0
    2.7309    2.6102    0.0000 O   0  0  0  0  0  0  0  0  0 11  0  0
    2.9041   -2.3253    0.0000 H   0  0  0  0  0  0  0  0  0  0  0  0
    7.2117   -0.2787    0.0000 O   0  0  0  0  0  0  0  0  0  0  0  0
    7.3755   -1.7697    0.0000 C   0  0  1  0  0  0  0  0  0  0  0  0
    6.0081   -2.3862    0.0000 C   0  0  0  0  0  0  0  0  0  0  0  0
    8.6781   -2.5136    0.0000 C   0  0  0  0  0  0  0  0  0  0  0  0
    9.4220   -1.2110    0.0000 C   0  0  0  0  0  0  0  0  0  0  0  0
    9.9806   -3.2575    0.0000 C   0  0  0  0  0  0  0  0  0  0  0  0
    7.9342   -3.8161    0.0000 O   0  0  0  0  0  0  0  0  0  0  0  0
    7.2186    5.2295    0.0000 C   0  0  0  0  0  0  0  0  0  0  0  0
    7.9747    3.9340    0.0000 C   0  0  0  0  0  0  0  0  0  0  0  0
    9.4747    3.9410    0.0000 C   0  0  0  0  0  0  0  0  0  0  0  0
    7.2308    2.6314    0.0000 C   0  0  0  0  0  0  0  0  0  0  0  0
    5.7308    2.6244    0.0000 C   0  0  0  0  0  0  0  0  0  0  0  0
    4.9747    3.9198    0.0000 O   0  0  0  0  0  0  0  0  0  0  0  0
    5.7186    5.2224    0.0000 C   0  0  0  0  0  0  0  0  0  0  0  0
    7.9869    1.3359    0.0000 O   0  0  0  0  0  0  0  0  0  0  0  0
   -1.0130    1.2936    0.0000 C   0  0  0  0  0  0  0  0  0  0  0  0
   -1.0059   -0.2064    0.0000 C   0  0  0  0  0  0  0  0  0  0  0  0
   -1.0200    2.7936    0.0000 C   0  0  0  0  0  0  0  0  0  0  0  0
   -2.5130    1.2865    0.0000 C   0  0  0  0  0  0  0  0  0  0  0  0
   -3.2569   -0.0160    0.0000 C   0  0  0  0  0  0  0  0  0  0  0  0
    0.6480   -1.0369    0.0000 H   0  0  0  0  0  0  0  0  0  0  0  0
  1  2  2  0  0  0  0
  1  6  1  0  0  0  0
  2  3  1  0  0  0  0
  3  4  2  0  0  0  0
  4  5  1  0  0  0  0
  5  6  2  0  0  0  0
  5 11  1  0  0  0  0
  6  7  1  0  0  0  0
  7  8  2  0  0  0  0
  8  9  1  0  0  0  0
  9 10  2  0  0  0  0
  9 11  1  0  0  0  0
  1 12  1  0  0  0  0
 13 14  1  0  0  0  0
 14 15  1  0  0  0  0
 14 16  1  6  0  0  0
 16 17  1  0  0  0  0
 16 18  1  0  0  0  0
 16 19  1  0  0  0  0
  2 15  1  0  0  0  0
  3 13  1  0  0  0  0
 20 21  1  0  0  0  0
 21 22  2  0  0  0  0
 21 23  1  0  0  0  0
 23 24  1  0  0  0  0
 23 27  1  0  0  0  0
 24 25  1  0  0  0  0
 25 26  1  0  0  0  0
  4 24  1  0  0  0  0
 28 29  1  0  0  0  0
 28 30  1  0  0  0  0
 28 31  1  0  0  0  0
 31 32  2  0  0  0  0
  8 28  1  0  0  0  0
  7 33  1  0  0  0  0
M  END
> <score_KierA1>
0.51763

$$$$
suggested molecule #583
 MOE2019            2D

 33 35  0  0  1  0  0  0  0  0999 V2000
    3.4992   -1.2833    0.0000 C   0  0  0  0  0  0  0  0  0  1  0  0
    4.9992   -1.2762    0.0000 C   0  0  0  0  0  0  0  0  0  2  0  0
    5.7430    0.0263    0.0000 C   0  0  0  0  0  0  0  0  0  3  0  0
    4.9869    1.3218    0.0000 C   0  0  0  0  0  0  0  0  0  4  0  0
    3.4870    1.3147    0.0000 C   0  0  0  0  0  0  0  0  0  5  0  0
    2.7431    0.0122    0.0000 C   0  0  0  0  0  0  0  0  0  6  0  0
    1.2431    0.0051    0.0000 C   0  0  0  0  0  0  0  0  0  7  0  0
    0.4870    1.3006    0.0000 C   0  0  0  0  0  0  0  0  0  8  0  0
    1.2309    2.6032    0.0000 C   0  0  0  0  0  0  0  0  0  9  0  0
    0.4748    3.8987    0.0000 O   0  0  0  0  0  0  0  0  0 10  0  0
    2.7309    2.6102    0.0000 O   0  0  0  0  0  0  0  0  0 11  0  0
    2.9041   -2.3253    0.0000 H   0  0  0  0  0  0  0  0  0  0  0  0
    7.2117   -0.2787    0.0000 O   0  0  0  0  0  0  0  0  0  0  0  0
    7.3755   -1.7697    0.0000 C   0  0  1  0  0  0  0  0  0  0  0  0
    6.0081   -2.3862    0.0000 C   0  0  0  0  0  0  0  0  0  0  0  0
    8.6781   -2.5136    0.0000 C   0  0  0  0  0  0  0  0  0  0  0  0
    9.4220   -1.2110    0.0000 C   0  0  0  0  0  0  0  0  0  0  0  0
    9.9806   -3.2575    0.0000 C   0  0  0  0  0  0  0  0  0  0  0  0
    7.9342   -3.8161    0.0000 O   0  0  0  0  0  0  0  0  0  0  0  0
    7.2186    5.2295    0.0000 C   0  0  0  0  0  0  0  0  0  0  0  0
    7.9747    3.9340    0.0000 C   0  0  0  0  0  0  0  0  0  0  0  0
    9.4747    3.9410    0.0000 C   0  0  0  0  0  0  0  0  0  0  0  0
    7.2308    2.6314    0.0000 C   0  0  0  0  0  0  0  0  0  0  0  0
    5.7308    2.6244    0.0000 C   0  0  0  0  0  0  0  0  0  0  0  0
    4.9747    3.9198    0.0000 O   0  0  0  0  0  0  0  0  0  0  0  0
    5.7186    5.2224    0.0000 C   0  0  0  0  0  0  0  0  0  0  0  0
    7.9869    1.3359    0.0000 O   0  0  0  0  0  0  0  0  0  0  0  0
   -1.0130    1.2936    0.0000 C   0  0  0  0  0  0  0  0  0  0  0  0
   -1.0059   -0.2064    0.0000 C   0  0  0  0  0  0  0  0  0  0  0  0
   -1.0200    2.7936    0.0000 C   0  0  0  0  0  0  0  0  0  0  0  0
   -2.5130    1.2865    0.0000 C   0  0  0  0  0  0  0  0  0  0  0  0
   -3.2569   -0.0160    0.0000 C   0  0  0  0  0  0  0  0  0  0  0  0
    0.6480   -1.0369    0.0000 H   0  0  0  0  0  0  0  0  0  0  0  0
  1  2  2  0  0  0  0
  1  6  1  0  0  0  0
  2  3  1  0  0  0  0
  3  4  2  0  0  0  0
  4  5  1  0  0  0  0
  5  6  2  0  0  0  0
  5 11  1  0  0  0  0
  6  7  1  0  0  0  0
  7  8  2  0  0  0  0
  8  9  1  0  0  0  0
  9 10  2  0  0  0  0
  9 11  1  0  0  0  0
  1 12  1  0  0  0  0
 13 14  1  0  0  0  0
 14 15  1  0  0  0  0
 14 16  1  6  0  0  0
 16 17  1  0  0  0  0
 16 18  1  0  0  0  0
 16 19  1  0  0  0  0
  2 15  1  0  0  0  0
  3 13  1  0  0  0  0
 20 21  1  0  0  0  0
 21 22  2  0  0  0  0
 21 23  1  0  0  0  0
 23 24  1  0  0  0  0
 23 27  1  0  0  0  0
 24 25  1  0  0  0  0
 25 26  1  0  0  0  0
  4 24  1  0  0  0  0
 28 29  1  0  0  0  0
 28 30  1  0  0  0  0
 28 31  1  0  0  0  0
 31 32  2  0  0  0  0
  8 28  1  0  0  0  0
  7 33  1  0  0  0  0
M  END
> <score_KierA2>
0.516791

$$$$
suggested molecule #584
 MOE2019            2D

 32 34  0  0  1  0  0  0  0  0999 V2000
    3.4992   -1.2833    0.0000 C   0  0  0  0  0  0  0  0  0  1  0  0
    4.9992   -1.2762    0.0000 C   0  0  0  0  0  0  0  0  0  2  0  0
    5.7430    0.0263    0.0000 C   0  0  0  0  0  0  0  0  0  3  0  0
    4.9869    1.3218    0.0000 C   0  0  0  0  0  0  0  0  0  4  0  0
    3.4870    1.3147    0.0000 C   0  0  0  0  0  0  0  0  0  5  0  0
    2.7431    0.0122    0.0000 C   0  0  0  0  0  0  0  0  0  6  0  0
    1.2431    0.0051    0.0000 C   0  0  0  0  0  0  0  0  0  7  0  0
    0.4870    1.3006    0.0000 C   0  0  0  0  0  0  0  0  0  8  0  0
    1.2309    2.6032    0.0000 C   0  0  0  0  0  0  0  0  0  9  0  0
    0.4748    3.8987    0.0000 O   0  0  0  0  0  0  0  0  0 10  0  0
    2.7309    2.6102    0.0000 O   0  0  0  0  0  0  0  0  0 11  0  0
    2.9041   -2.3253    0.0000 H   0  0  0  0  0  0  0  0  0  0  0  0
    7.2117   -0.2787    0.0000 O   0  0  0  0  0  0  0  0  0  0  0  0
    7.3755   -1.7697    0.0000 C   0  0  1  0  0  0  0  0  0  0  0  0
    6.0081   -2.3862    0.0000 C   0  0  0  0  0  0  0  0  0  0  0  0
    8.6781   -2.5136    0.0000 C   0  0  0  0  0  0  0  0  0  0  0  0
    9.9806   -3.2575    0.0000 C   0  0  0  0  0  0  0  0  0  0  0  0
    9.4220   -1.2110    0.0000 C   0  0  0  0  0  0  0  0  0  0  0  0
    7.9342   -3.8161    0.0000 O   0  0  0  0  0  0  0  0  0  0  0  0
    9.2772    3.1901    0.0000 C   0  0  0  0  0  0  0  0  0  0  0  0
    7.9747    3.9340    0.0000 C   0  0  0  0  0  0  0  0  0  0  0  0
    6.6721    4.6778    0.0000 C   0  0  0  0  0  0  0  0  0  0  0  0
    7.2308    2.6314    0.0000 C   0  0  0  0  0  0  0  0  0  0  0  0
    5.7308    2.6244    0.0000 C   0  0  0  0  0  0  0  0  0  0  0  0
    7.9869    1.3359    0.0000 O   0  0  0  0  0  0  0  0  0  0  0  0
    8.7186    5.2365    0.0000 O   0  0  0  0  0  0  0  0  0  0  0  0
   -1.0130    1.2936    0.0000 C   0  0  0  0  0  0  0  0  0  0  0  0
   -1.0200    2.7936    0.0000 C   0  0  0  0  0  0  0  0  0  0  0  0
   -1.0059   -0.2064    0.0000 C   0  0  0  0  0  0  0  0  0  0  0  0
   -2.5130    1.2865    0.0000 C   0  0  0  0  0  0  0  0  0  0  0  0
   -3.2569   -0.0160    0.0000 C   0  0  0  0  0  0  0  0  0  0  0  0
    0.6480   -1.0369    0.0000 H   0  0  0  0  0  0  0  0  0  0  0  0
  1  2  2  0  0  0  0
  1  6  1  0  0  0  0
  2  3  1  0  0  0  0
  3  4  2  0  0  0  0
  4  5  1  0  0  0  0
  5  6  2  0  0  0  0
  5 11  1  0  0  0  0
  6  7  1  0  0  0  0
  7  8  2  0  0  0  0
  8  9  1  0  0  0  0
  9 10  2  0  0  0  0
  9 11  1  0  0  0  0
  1 12  1  0  0  0  0
 13 14  1  0  0  0  0
 14 15  1  0  0  0  0
 14 16  1  6  0  0  0
 16 17  1  0  0  0  0
 16 18  1  0  0  0  0
 16 19  1  0  0  0  0
  2 15  1  0  0  0  0
  3 13  1  0  0  0  0
 20 21  1  0  0  0  0
 21 22  1  0  0  0  0
 21 23  1  0  0  0  0
 21 26  1  0  0  0  0
 23 24  1  0  0  0  0
 23 25  1  0  0  0  0
  4 24  1  0  0  0  0
 27 28  1  0  0  0  0
 27 29  1  0  0  0  0
 27 30  1  0  0  0  0
 30 31  2  0  0  0  0
  8 27  1  0  0  0  0
  7 32  1  0  0  0  0
M  END
> <score_Kier1>
0.517839

$$$$
suggested molecule #585
 MOE2019            2D

 32 34  0  0  1  0  0  0  0  0999 V2000
    3.4992   -1.2833    0.0000 C   0  0  0  0  0  0  0  0  0  1  0  0
    4.9992   -1.2762    0.0000 C   0  0  0  0  0  0  0  0  0  2  0  0
    5.7430    0.0263    0.0000 C   0  0  0  0  0  0  0  0  0  3  0  0
    4.9869    1.3218    0.0000 C   0  0  0  0  0  0  0  0  0  4  0  0
    3.4870    1.3147    0.0000 C   0  0  0  0  0  0  0  0  0  5  0  0
    2.7431    0.0122    0.0000 C   0  0  0  0  0  0  0  0  0  6  0  0
    1.2431    0.0051    0.0000 C   0  0  0  0  0  0  0  0  0  7  0  0
    0.4870    1.3006    0.0000 C   0  0  0  0  0  0  0  0  0  8  0  0
    1.2309    2.6032    0.0000 C   0  0  0  0  0  0  0  0  0  9  0  0
    0.4748    3.8987    0.0000 O   0  0  0  0  0  0  0  0  0 10  0  0
    2.7309    2.6102    0.0000 O   0  0  0  0  0  0  0  0  0 11  0  0
    2.9041   -2.3253    0.0000 H   0  0  0  0  0  0  0  0  0  0  0  0
    7.2117   -0.2787    0.0000 O   0  0  0  0  0  0  0  0  0  0  0  0
    7.3755   -1.7697    0.0000 C   0  0  1  0  0  0  0  0  0  0  0  0
    6.0081   -2.3862    0.0000 C   0  0  0  0  0  0  0  0  0  0  0  0
    8.6781   -2.5136    0.0000 C   0  0  0  0  0  0  0  0  0  0  0  0
    9.9806   -3.2575    0.0000 C   0  0  0  0  0  0  0  0  0  0  0  0
    9.4220   -1.2110    0.0000 C   0  0  0  0  0  0  0  0  0  0  0  0
    7.9342   -3.8161    0.0000 O   0  0  0  0  0  0  0  0  0  0  0  0
    9.2772    3.1901    0.0000 C   0  0  0  0  0  0  0  0  0  0  0  0
    7.9747    3.9340    0.0000 C   0  0  0  0  0  0  0  0  0  0  0  0
    6.6721    4.6778    0.0000 C   0  0  0  0  0  0  0  0  0  0  0  0
    7.2308    2.6314    0.0000 C   0  0  0  0  0  0  0  0  0  0  0  0
    5.7308    2.6244    0.0000 C   0  0  0  0  0  0  0  0  0  0  0  0
    7.9869    1.3359    0.0000 O   0  0  0  0  0  0  0  0  0  0  0  0
    8.7186    5.2365    0.0000 O   0  0  0  0  0  0  0  0  0  0  0  0
   -1.0130    1.2936    0.0000 C   0  0  0  0  0  0  0  0  0  0  0  0
   -1.0200    2.7936    0.0000 C   0  0  0  0  0  0  0  0  0  0  0  0
   -1.0059   -0.2064    0.0000 C   0  0  0  0  0  0  0  0  0  0  0  0
   -2.5130    1.2865    0.0000 C   0  0  0  0  0  0  0  0  0  0  0  0
   -3.2569   -0.0160    0.0000 C   0  0  0  0  0  0  0  0  0  0  0  0
    0.6480   -1.0369    0.0000 H   0  0  0  0  0  0  0  0  0  0  0  0
  1  2  2  0  0  0  0
  1  6  1  0  0  0  0
  2  3  1  0  0  0  0
  3  4  2  0  0  0  0
  4  5  1  0  0  0  0
  5  6  2  0  0  0  0
  5 11  1  0  0  0  0
  6  7  1  0  0  0  0
  7  8  2  0  0  0  0
  8  9  1  0  0  0  0
  9 10  2  0  0  0  0
  9 11  1  0  0  0  0
  1 12  1  0  0  0  0
 13 14  1  0  0  0  0
 14 15  1  0  0  0  0
 14 16  1  6  0  0  0
 16 17  1  0  0  0  0
 16 18  1  0  0  0  0
 16 19  1  0  0  0  0
  2 15  1  0  0  0  0
  3 13  1  0  0  0  0
 20 21  1  0  0  0  0
 21 22  1  0  0  0  0
 21 23  1  0  0  0  0
 21 26  1  0  0  0  0
 23 24  1  0  0  0  0
 23 25  1  0  0  0  0
  4 24  1  0  0  0  0
 27 28  1  0  0  0  0
 27 29  1  0  0  0  0
 27 30  1  0  0  0  0
 30 31  2  0  0  0  0
  8 27  1  0  0  0  0
  7 32  1  0  0  0  0
M  END
> <score_Kier2>
0.516657

$$$$
suggested molecule #586
 MOE2019            2D

 32 34  0  0  1  0  0  0  0  0999 V2000
    3.4992   -1.2833    0.0000 C   0  0  0  0  0  0  0  0  0  1  0  0
    4.9992   -1.2762    0.0000 C   0  0  0  0  0  0  0  0  0  2  0  0
    5.7430    0.0263    0.0000 C   0  0  0  0  0  0  0  0  0  3  0  0
    4.9869    1.3218    0.0000 C   0  0  0  0  0  0  0  0  0  4  0  0
    3.4870    1.3147    0.0000 C   0  0  0  0  0  0  0  0  0  5  0  0
    2.7431    0.0122    0.0000 C   0  0  0  0  0  0  0  0  0  6  0  0
    1.2431    0.0051    0.0000 C   0  0  0  0  0  0  0  0  0  7  0  0
    0.4870    1.3006    0.0000 C   0  0  0  0  0  0  0  0  0  8  0  0
    1.2309    2.6032    0.0000 C   0  0  0  0  0  0  0  0  0  9  0  0
    0.4748    3.8987    0.0000 O   0  0  0  0  0  0  0  0  0 10  0  0
    2.7309    2.6102    0.0000 O   0  0  0  0  0  0  0  0  0 11  0  0
    2.9041   -2.3253    0.0000 H   0  0  0  0  0  0  0  0  0  0  0  0
    7.2117   -0.2787    0.0000 O   0  0  0  0  0  0  0  0  0  0  0  0
    7.3755   -1.7697    0.0000 C   0  0  1  0  0  0  0  0  0  0  0  0
    6.0081   -2.3862    0.0000 C   0  0  0  0  0  0  0  0  0  0  0  0
    8.6781   -2.5136    0.0000 C   0  0  0  0  0  0  0  0  0  0  0  0
    9.9806   -3.2575    0.0000 C   0  0  0  0  0  0  0  0  0  0  0  0
    9.4220   -1.2110    0.0000 C   0  0  0  0  0  0  0  0  0  0  0  0
    7.9342   -3.8161    0.0000 O   0  0  0  0  0  0  0  0  0  0  0  0
    9.2772    3.1901    0.0000 C   0  0  0  0  0  0  0  0  0  0  0  0
    7.9747    3.9340    0.0000 C   0  0  0  0  0  0  0  0  0  0  0  0
    6.6721    4.6778    0.0000 C   0  0  0  0  0  0  0  0  0  0  0  0
    7.2308    2.6314    0.0000 C   0  0  0  0  0  0  0  0  0  0  0  0
    5.7308    2.6244    0.0000 C   0  0  0  0  0  0  0  0  0  0  0  0
    7.9869    1.3359    0.0000 O   0  0  0  0  0  0  0  0  0  0  0  0
    8.7186    5.2365    0.0000 O   0  0  0  0  0  0  0  0  0  0  0  0
   -1.0130    1.2936    0.0000 C   0  0  0  0  0  0  0  0  0  0  0  0
   -1.0200    2.7936    0.0000 C   0  0  0  0  0  0  0  0  0  0  0  0
   -1.0059   -0.2064    0.0000 C   0  0  0  0  0  0  0  0  0  0  0  0
   -2.5130    1.2865    0.0000 C   0  0  0  0  0  0  0  0  0  0  0  0
   -3.2569   -0.0160    0.0000 C   0  0  0  0  0  0  0  0  0  0  0  0
    0.6480   -1.0369    0.0000 H   0  0  0  0  0  0  0  0  0  0  0  0
  1  2  2  0  0  0  0
  1  6  1  0  0  0  0
  2  3  1  0  0  0  0
  3  4  2  0  0  0  0
  4  5  1  0  0  0  0
  5  6  2  0  0  0  0
  5 11  1  0  0  0  0
  6  7  1  0  0  0  0
  7  8  2  0  0  0  0
  8  9  1  0  0  0  0
  9 10  2  0  0  0  0
  9 11  1  0  0  0  0
  1 12  1  0  0  0  0
 13 14  1  0  0  0  0
 14 15  1  0  0  0  0
 14 16  1  6  0  0  0
 16 17  1  0  0  0  0
 16 18  1  0  0  0  0
 16 19  1  0  0  0  0
  2 15  1  0  0  0  0
  3 13  1  0  0  0  0
 20 21  1  0  0  0  0
 21 22  1  0  0  0  0
 21 23  1  0  0  0  0
 21 26  1  0  0  0  0
 23 24  1  0  0  0  0
 23 25  1  0  0  0  0
  4 24  1  0  0  0  0
 27 28  1  0  0  0  0
 27 29  1  0  0  0  0
 27 30  1  0  0  0  0
 30 31  2  0  0  0  0
  8 27  1  0  0  0  0
  7 32  1  0  0  0  0
M  END
> <score_KierA1>
0.517666

$$$$
suggested molecule #587
 MOE2019            2D

 32 34  0  0  1  0  0  0  0  0999 V2000
    3.4992   -1.2833    0.0000 C   0  0  0  0  0  0  0  0  0  1  0  0
    4.9992   -1.2762    0.0000 C   0  0  0  0  0  0  0  0  0  2  0  0
    5.7430    0.0263    0.0000 C   0  0  0  0  0  0  0  0  0  3  0  0
    4.9869    1.3218    0.0000 C   0  0  0  0  0  0  0  0  0  4  0  0
    3.4870    1.3147    0.0000 C   0  0  0  0  0  0  0  0  0  5  0  0
    2.7431    0.0122    0.0000 C   0  0  0  0  0  0  0  0  0  6  0  0
    1.2431    0.0051    0.0000 C   0  0  0  0  0  0  0  0  0  7  0  0
    0.4870    1.3006    0.0000 C   0  0  0  0  0  0  0  0  0  8  0  0
    1.2309    2.6032    0.0000 C   0  0  0  0  0  0  0  0  0  9  0  0
    0.4748    3.8987    0.0000 O   0  0  0  0  0  0  0  0  0 10  0  0
    2.7309    2.6102    0.0000 O   0  0  0  0  0  0  0  0  0 11  0  0
    2.9041   -2.3253    0.0000 H   0  0  0  0  0  0  0  0  0  0  0  0
    7.2117   -0.2787    0.0000 O   0  0  0  0  0  0  0  0  0  0  0  0
    7.3755   -1.7697    0.0000 C   0  0  1  0  0  0  0  0  0  0  0  0
    6.0081   -2.3862    0.0000 C   0  0  0  0  0  0  0  0  0  0  0  0
    8.6781   -2.5136    0.0000 C   0  0  0  0  0  0  0  0  0  0  0  0
    9.9806   -3.2575    0.0000 C   0  0  0  0  0  0  0  0  0  0  0  0
    9.4220   -1.2110    0.0000 C   0  0  0  0  0  0  0  0  0  0  0  0
    7.9342   -3.8161    0.0000 O   0  0  0  0  0  0  0  0  0  0  0  0
    9.2772    3.1901    0.0000 C   0  0  0  0  0  0  0  0  0  0  0  0
    7.9747    3.9340    0.0000 C   0  0  0  0  0  0  0  0  0  0  0  0
    6.6721    4.6778    0.0000 C   0  0  0  0  0  0  0  0  0  0  0  0
    7.2308    2.6314    0.0000 C   0  0  0  0  0  0  0  0  0  0  0  0
    5.7308    2.6244    0.0000 C   0  0  0  0  0  0  0  0  0  0  0  0
    7.9869    1.3359    0.0000 O   0  0  0  0  0  0  0  0  0  0  0  0
    8.7186    5.2365    0.0000 O   0  0  0  0  0  0  0  0  0  0  0  0
   -1.0130    1.2936    0.0000 C   0  0  0  0  0  0  0  0  0  0  0  0
   -1.0200    2.7936    0.0000 C   0  0  0  0  0  0  0  0  0  0  0  0
   -1.0059   -0.2064    0.0000 C   0  0  0  0  0  0  0  0  0  0  0  0
   -2.5130    1.2865    0.0000 C   0  0  0  0  0  0  0  0  0  0  0  0
   -3.2569   -0.0160    0.0000 C   0  0  0  0  0  0  0  0  0  0  0  0
    0.6480   -1.0369    0.0000 H   0  0  0  0  0  0  0  0  0  0  0  0
  1  2  2  0  0  0  0
  1  6  1  0  0  0  0
  2  3  1  0  0  0  0
  3  4  2  0  0  0  0
  4  5  1  0  0  0  0
  5  6  2  0  0  0  0
  5 11  1  0  0  0  0
  6  7  1  0  0  0  0
  7  8  2  0  0  0  0
  8  9  1  0  0  0  0
  9 10  2  0  0  0  0
  9 11  1  0  0  0  0
  1 12  1  0  0  0  0
 13 14  1  0  0  0  0
 14 15  1  0  0  0  0
 14 16  1  6  0  0  0
 16 17  1  0  0  0  0
 16 18  1  0  0  0  0
 16 19  1  0  0  0  0
  2 15  1  0  0  0  0
  3 13  1  0  0  0  0
 20 21  1  0  0  0  0
 21 22  1  0  0  0  0
 21 23  1  0  0  0  0
 21 26  1  0  0  0  0
 23 24  1  0  0  0  0
 23 25  1  0  0  0  0
  4 24  1  0  0  0  0
 27 28  1  0  0  0  0
 27 29  1  0  0  0  0
 27 30  1  0  0  0  0
 30 31  2  0  0  0  0
  8 27  1  0  0  0  0
  7 32  1  0  0  0  0
M  END
> <score_KierA2>
0.516848

$$$$
suggested molecule #588
 MOE2019            2D

 32 34  0  0  1  0  0  0  0  0999 V2000
    3.4992   -1.2833    0.0000 C   0  0  0  0  0  0  0  0  0  1  0  0
    4.9992   -1.2762    0.0000 C   0  0  0  0  0  0  0  0  0  2  0  0
    5.7430    0.0263    0.0000 C   0  0  0  0  0  0  0  0  0  3  0  0
    4.9869    1.3218    0.0000 C   0  0  0  0  0  0  0  0  0  4  0  0
    3.4870    1.3147    0.0000 C   0  0  0  0  0  0  0  0  0  5  0  0
    2.7431    0.0122    0.0000 C   0  0  0  0  0  0  0  0  0  6  0  0
    1.2431    0.0051    0.0000 C   0  0  0  0  0  0  0  0  0  7  0  0
    0.4870    1.3006    0.0000 C   0  0  0  0  0  0  0  0  0  8  0  0
    1.2309    2.6032    0.0000 C   0  0  0  0  0  0  0  0  0  9  0  0
    0.4748    3.8987    0.0000 O   0  0  0  0  0  0  0  0  0 10  0  0
    2.7309    2.6102    0.0000 O   0  0  0  0  0  0  0  0  0 11  0  0
    2.9041   -2.3253    0.0000 H   0  0  0  0  0  0  0  0  0  0  0  0
    7.2117   -0.2787    0.0000 O   0  0  0  0  0  0  0  0  0  0  0  0
    7.3755   -1.7697    0.0000 C   0  0  1  0  0  0  0  0  0  0  0  0
    6.0081   -2.3862    0.0000 C   0  0  0  0  0  0  0  0  0  0  0  0
    8.6781   -2.5136    0.0000 C   0  0  0  0  0  0  0  0  0  0  0  0
    9.9806   -3.2575    0.0000 C   0  0  0  0  0  0  0  0  0  0  0  0
    9.4220   -1.2110    0.0000 C   0  0  0  0  0  0  0  0  0  0  0  0
    7.9342   -3.8161    0.0000 O   0  0  0  0  0  0  0  0  0  0  0  0
    9.2772    3.1901    0.0000 C   0  0  0  0  0  0  0  0  0  0  0  0
    7.9747    3.9340    0.0000 C   0  0  0  0  0  0  0  0  0  0  0  0
    6.6721    4.6778    0.0000 C   0  0  0  0  0  0  0  0  0  0  0  0
    7.2308    2.6314    0.0000 C   0  0  0  0  0  0  0  0  0  0  0  0
    5.7308    2.6244    0.0000 C   0  0  0  0  0  0  0  0  0  0  0  0
    7.9869    1.3359    0.0000 O   0  0  0  0  0  0  0  0  0  0  0  0
    8.7186    5.2365    0.0000 O   0  0  0  0  0  0  0  0  0  0  0  0
   -1.0130    1.2936    0.0000 C   0  0  0  0  0  0  0  0  0  0  0  0
   -1.0200    2.7936    0.0000 C   0  0  0  0  0  0  0  0  0  0  0  0
   -1.0059   -0.2064    0.0000 C   0  0  0  0  0  0  0  0  0  0  0  0
   -2.5130    1.2865    0.0000 C   0  0  0  0  0  0  0  0  0  0  0  0
   -3.2569   -0.0160    0.0000 C   0  0  0  0  0  0  0  0  0  0  0  0
    0.6480   -1.0369    0.0000 H   0  0  0  0  0  0  0  0  0  0  0  0
  1  2  2  0  0  0  0
  1  6  1  0  0  0  0
  2  3  1  0  0  0  0
  3  4  2  0  0  0  0
  4  5  1  0  0  0  0
  5  6  2  0  0  0  0
  5 11  1  0  0  0  0
  6  7  1  0  0  0  0
  7  8  2  0  0  0  0
  8  9  1  0  0  0  0
  9 10  2  0  0  0  0
  9 11  1  0  0  0  0
  1 12  1  0  0  0  0
 13 14  1  0  0  0  0
 14 15  1  0  0  0  0
 14 16  1  6  0  0  0
 16 17  1  0  0  0  0
 16 18  1  0  0  0  0
 16 19  1  0  0  0  0
  2 15  1  0  0  0  0
  3 13  1  0  0  0  0
 20 21  1  0  0  0  0
 21 22  1  0  0  0  0
 21 23  1  0  0  0  0
 21 26  1  0  0  0  0
 23 24  1  0  0  0  0
 23 25  1  0  0  0  0
  4 24  1  0  0  0  0
 27 28  1  0  0  0  0
 27 29  1  0  0  0  0
 27 30  1  0  0  0  0
 30 31  2  0  0  0  0
  8 27  1  0  0  0  0
  7 32  1  0  0  0  0
M  END
> <score_KierFlex>
0.516317

$$$$
suggested molecule #589
 MOE2019            2D

 31 33  0  0  1  0  0  0  0  0999 V2000
    3.4992   -1.2833    0.0000 C   0  0  0  0  0  0  0  0  0  1  0  0
    4.9992   -1.2762    0.0000 C   0  0  0  0  0  0  0  0  0  2  0  0
    5.7430    0.0263    0.0000 C   0  0  0  0  0  0  0  0  0  3  0  0
    4.9869    1.3218    0.0000 C   0  0  0  0  0  0  0  0  0  4  0  0
    3.4870    1.3147    0.0000 C   0  0  0  0  0  0  0  0  0  5  0  0
    2.7431    0.0122    0.0000 C   0  0  0  0  0  0  0  0  0  6  0  0
    1.2431    0.0051    0.0000 C   0  0  0  0  0  0  0  0  0  7  0  0
    0.4870    1.3006    0.0000 C   0  0  0  0  0  0  0  0  0  8  0  0
    1.2309    2.6032    0.0000 C   0  0  0  0  0  0  0  0  0  9  0  0
    0.4748    3.8987    0.0000 O   0  0  0  0  0  0  0  0  0 10  0  0
    2.7309    2.6102    0.0000 O   0  0  0  0  0  0  0  0  0 11  0  0
    2.9041   -2.3253    0.0000 H   0  0  0  0  0  0  0  0  0  0  0  0
    7.2117   -0.2787    0.0000 O   0  0  0  0  0  0  0  0  0  0  0  0
    7.3755   -1.7697    0.0000 C   0  0  1  0  0  0  0  0  0  0  0  0
    6.0081   -2.3862    0.0000 C   0  0  0  0  0  0  0  0  0  0  0  0
    8.6781   -2.5136    0.0000 C   0  0  0  0  0  0  0  0  0  0  0  0
    9.4220   -1.2110    0.0000 C   0  0  0  0  0  0  0  0  0  0  0  0
    9.9806   -3.2575    0.0000 C   0  0  0  0  0  0  0  0  0  0  0  0
    7.9342   -3.8161    0.0000 O   0  0  0  0  0  0  0  0  0  0  0  0
    7.9869    1.3359    0.0000 C   0  0  0  0  0  0  0  0  0  0  0  0
    7.2308    2.6314    0.0000 C   0  0  0  0  0  0  0  0  0  0  0  0
    5.7308    2.6244    0.0000 C   0  0  0  0  0  0  0  0  0  0  0  0
    4.9747    3.9198    0.0000 C   0  0  0  0  0  0  0  0  0  0  0  0
    5.7186    5.2224    0.0000 O   0  0  0  0  0  0  0  0  0  0  0  0
    7.9747    3.9340    0.0000 C   0  0  0  0  0  0  0  0  0  0  0  0
   -1.0130    1.2936    0.0000 C   0  0  0  0  0  0  0  0  0  0  0  0
   -1.0059   -0.2064    0.0000 C   0  0  0  0  0  0  0  0  0  0  0  0
   -1.0200    2.7936    0.0000 C   0  0  0  0  0  0  0  0  0  0  0  0
   -2.5130    1.2865    0.0000 C   0  0  0  0  0  0  0  0  0  0  0  0
   -3.2569   -0.0160    0.0000 C   0  0  0  0  0  0  0  0  0  0  0  0
    0.6480   -1.0369    0.0000 H   0  0  0  0  0  0  0  0  0  0  0  0
  1  2  2  0  0  0  0
  1  6  1  0  0  0  0
  2  3  1  0  0  0  0
  3  4  2  0  0  0  0
  4  5  1  0  0  0  0
  5  6  2  0  0  0  0
  5 11  1  0  0  0  0
  6  7  1  0  0  0  0
  7  8  2  0  0  0  0
  8  9  1  0  0  0  0
  9 10  2  0  0  0  0
  9 11  1  0  0  0  0
  1 12  1  0  0  0  0
 13 14  1  0  0  0  0
 14 15  1  0  0  0  0
 14 16  1  6  0  0  0
 16 17  1  0  0  0  0
 16 18  1  0  0  0  0
 16 19  1  0  0  0  0
  2 15  1  0  0  0  0
  3 13  1  0  0  0  0
 20 21  1  0  0  0  0
 21 22  2  0  0  0  0
 21 25  1  0  0  0  0
 22 23  1  0  0  0  0
 23 24  2  0  0  0  0
  4 22  1  0  0  0  0
 26 27  1  0  0  0  0
 26 28  1  0  0  0  0
 26 29  1  0  0  0  0
 29 30  2  0  0  0  0
  8 26  1  0  0  0  0
  7 31  1  0  0  0  0
M  END
> <score_Kier1>
0.517817

$$$$
suggested molecule #590
 MOE2019            2D

 31 33  0  0  1  0  0  0  0  0999 V2000
    3.4992   -1.2833    0.0000 C   0  0  0  0  0  0  0  0  0  1  0  0
    4.9992   -1.2762    0.0000 C   0  0  0  0  0  0  0  0  0  2  0  0
    5.7430    0.0263    0.0000 C   0  0  0  0  0  0  0  0  0  3  0  0
    4.9869    1.3218    0.0000 C   0  0  0  0  0  0  0  0  0  4  0  0
    3.4870    1.3147    0.0000 C   0  0  0  0  0  0  0  0  0  5  0  0
    2.7431    0.0122    0.0000 C   0  0  0  0  0  0  0  0  0  6  0  0
    1.2431    0.0051    0.0000 C   0  0  0  0  0  0  0  0  0  7  0  0
    0.4870    1.3006    0.0000 C   0  0  0  0  0  0  0  0  0  8  0  0
    1.2309    2.6032    0.0000 C   0  0  0  0  0  0  0  0  0  9  0  0
    0.4748    3.8987    0.0000 O   0  0  0  0  0  0  0  0  0 10  0  0
    2.7309    2.6102    0.0000 O   0  0  0  0  0  0  0  0  0 11  0  0
    2.9041   -2.3253    0.0000 H   0  0  0  0  0  0  0  0  0  0  0  0
    7.2117   -0.2787    0.0000 O   0  0  0  0  0  0  0  0  0  0  0  0
    7.3755   -1.7697    0.0000 C   0  0  1  0  0  0  0  0  0  0  0  0
    6.0081   -2.3862    0.0000 C   0  0  0  0  0  0  0  0  0  0  0  0
    8.6781   -2.5136    0.0000 C   0  0  0  0  0  0  0  0  0  0  0  0
    9.4220   -1.2110    0.0000 C   0  0  0  0  0  0  0  0  0  0  0  0
    9.9806   -3.2575    0.0000 C   0  0  0  0  0  0  0  0  0  0  0  0
    7.9342   -3.8161    0.0000 O   0  0  0  0  0  0  0  0  0  0  0  0
    7.9869    1.3359    0.0000 C   0  0  0  0  0  0  0  0  0  0  0  0
    7.2308    2.6314    0.0000 C   0  0  0  0  0  0  0  0  0  0  0  0
    5.7308    2.6244    0.0000 C   0  0  0  0  0  0  0  0  0  0  0  0
    4.9747    3.9198    0.0000 C   0  0  0  0  0  0  0  0  0  0  0  0
    5.7186    5.2224    0.0000 O   0  0  0  0  0  0  0  0  0  0  0  0
    7.9747    3.9340    0.0000 C   0  0  0  0  0  0  0  0  0  0  0  0
   -1.0130    1.2936    0.0000 C   0  0  0  0  0  0  0  0  0  0  0  0
   -1.0059   -0.2064    0.0000 C   0  0  0  0  0  0  0  0  0  0  0  0
   -1.0200    2.7936    0.0000 C   0  0  0  0  0  0  0  0  0  0  0  0
   -2.5130    1.2865    0.0000 C   0  0  0  0  0  0  0  0  0  0  0  0
   -3.2569   -0.0160    0.0000 C   0  0  0  0  0  0  0  0  0  0  0  0
    0.6480   -1.0369    0.0000 H   0  0  0  0  0  0  0  0  0  0  0  0
  1  2  2  0  0  0  0
  1  6  1  0  0  0  0
  2  3  1  0  0  0  0
  3  4  2  0  0  0  0
  4  5  1  0  0  0  0
  5  6  2  0  0  0  0
  5 11  1  0  0  0  0
  6  7  1  0  0  0  0
  7  8  2  0  0  0  0
  8  9  1  0  0  0  0
  9 10  2  0  0  0  0
  9 11  1  0  0  0  0
  1 12  1  0  0  0  0
 13 14  1  0  0  0  0
 14 15  1  0  0  0  0
 14 16  1  6  0  0  0
 16 17  1  0  0  0  0
 16 18  1  0  0  0  0
 16 19  1  0  0  0  0
  2 15  1  0  0  0  0
  3 13  1  0  0  0  0
 20 21  1  0  0  0  0
 21 22  2  0  0  0  0
 21 25  1  0  0  0  0
 22 23  1  0  0  0  0
 23 24  2  0  0  0  0
  4 22  1  0  0  0  0
 26 27  1  0  0  0  0
 26 28  1  0  0  0  0
 26 29  1  0  0  0  0
 29 30  2  0  0  0  0
  8 26  1  0  0  0  0
  7 31  1  0  0  0  0
M  END
> <score_Kier2>
0.516613

$$$$
suggested molecule #591
 MOE2019            2D

 31 33  0  0  1  0  0  0  0  0999 V2000
    3.4992   -1.2833    0.0000 C   0  0  0  0  0  0  0  0  0  1  0  0
    4.9992   -1.2762    0.0000 C   0  0  0  0  0  0  0  0  0  2  0  0
    5.7430    0.0263    0.0000 C   0  0  0  0  0  0  0  0  0  3  0  0
    4.9869    1.3218    0.0000 C   0  0  0  0  0  0  0  0  0  4  0  0
    3.4870    1.3147    0.0000 C   0  0  0  0  0  0  0  0  0  5  0  0
    2.7431    0.0122    0.0000 C   0  0  0  0  0  0  0  0  0  6  0  0
    1.2431    0.0051    0.0000 C   0  0  0  0  0  0  0  0  0  7  0  0
    0.4870    1.3006    0.0000 C   0  0  0  0  0  0  0  0  0  8  0  0
    1.2309    2.6032    0.0000 C   0  0  0  0  0  0  0  0  0  9  0  0
    0.4748    3.8987    0.0000 O   0  0  0  0  0  0  0  0  0 10  0  0
    2.7309    2.6102    0.0000 O   0  0  0  0  0  0  0  0  0 11  0  0
    2.9041   -2.3253    0.0000 H   0  0  0  0  0  0  0  0  0  0  0  0
    7.2117   -0.2787    0.0000 O   0  0  0  0  0  0  0  0  0  0  0  0
    7.3755   -1.7697    0.0000 C   0  0  1  0  0  0  0  0  0  0  0  0
    6.0081   -2.3862    0.0000 C   0  0  0  0  0  0  0  0  0  0  0  0
    8.6781   -2.5136    0.0000 C   0  0  0  0  0  0  0  0  0  0  0  0
    9.4220   -1.2110    0.0000 C   0  0  0  0  0  0  0  0  0  0  0  0
    9.9806   -3.2575    0.0000 C   0  0  0  0  0  0  0  0  0  0  0  0
    7.9342   -3.8161    0.0000 O   0  0  0  0  0  0  0  0  0  0  0  0
    7.9869    1.3359    0.0000 C   0  0  0  0  0  0  0  0  0  0  0  0
    7.2308    2.6314    0.0000 C   0  0  0  0  0  0  0  0  0  0  0  0
    5.7308    2.6244    0.0000 C   0  0  0  0  0  0  0  0  0  0  0  0
    4.9747    3.9198    0.0000 C   0  0  0  0  0  0  0  0  0  0  0  0
    5.7186    5.2224    0.0000 O   0  0  0  0  0  0  0  0  0  0  0  0
    7.9747    3.9340    0.0000 C   0  0  0  0  0  0  0  0  0  0  0  0
   -1.0130    1.2936    0.0000 C   0  0  0  0  0  0  0  0  0  0  0  0
   -1.0059   -0.2064    0.0000 C   0  0  0  0  0  0  0  0  0  0  0  0
   -1.0200    2.7936    0.0000 C   0  0  0  0  0  0  0  0  0  0  0  0
   -2.5130    1.2865    0.0000 C   0  0  0  0  0  0  0  0  0  0  0  0
   -3.2569   -0.0160    0.0000 C   0  0  0  0  0  0  0  0  0  0  0  0
    0.6480   -1.0369    0.0000 H   0  0  0  0  0  0  0  0  0  0  0  0
  1  2  2  0  0  0  0
  1  6  1  0  0  0  0
  2  3  1  0  0  0  0
  3  4  2  0  0  0  0
  4  5  1  0  0  0  0
  5  6  2  0  0  0  0
  5 11  1  0  0  0  0
  6  7  1  0  0  0  0
  7  8  2  0  0  0  0
  8  9  1  0  0  0  0
  9 10  2  0  0  0  0
  9 11  1  0  0  0  0
  1 12  1  0  0  0  0
 13 14  1  0  0  0  0
 14 15  1  0  0  0  0
 14 16  1  6  0  0  0
 16 17  1  0  0  0  0
 16 18  1  0  0  0  0
 16 19  1  0  0  0  0
  2 15  1  0  0  0  0
  3 13  1  0  0  0  0
 20 21  1  0  0  0  0
 21 22  2  0  0  0  0
 21 25  1  0  0  0  0
 22 23  1  0  0  0  0
 23 24  2  0  0  0  0
  4 22  1  0  0  0  0
 26 27  1  0  0  0  0
 26 28  1  0  0  0  0
 26 29  1  0  0  0  0
 29 30  2  0  0  0  0
  8 26  1  0  0  0  0
  7 31  1  0  0  0  0
M  END
> <score_KierA1>
0.517656

$$$$
suggested molecule #592
 MOE2019            2D

 31 33  0  0  1  0  0  0  0  0999 V2000
    3.4992   -1.2833    0.0000 C   0  0  0  0  0  0  0  0  0  1  0  0
    4.9992   -1.2762    0.0000 C   0  0  0  0  0  0  0  0  0  2  0  0
    5.7430    0.0263    0.0000 C   0  0  0  0  0  0  0  0  0  3  0  0
    4.9869    1.3218    0.0000 C   0  0  0  0  0  0  0  0  0  4  0  0
    3.4870    1.3147    0.0000 C   0  0  0  0  0  0  0  0  0  5  0  0
    2.7431    0.0122    0.0000 C   0  0  0  0  0  0  0  0  0  6  0  0
    1.2431    0.0051    0.0000 C   0  0  0  0  0  0  0  0  0  7  0  0
    0.4870    1.3006    0.0000 C   0  0  0  0  0  0  0  0  0  8  0  0
    1.2309    2.6032    0.0000 C   0  0  0  0  0  0  0  0  0  9  0  0
    0.4748    3.8987    0.0000 O   0  0  0  0  0  0  0  0  0 10  0  0
    2.7309    2.6102    0.0000 O   0  0  0  0  0  0  0  0  0 11  0  0
    2.9041   -2.3253    0.0000 H   0  0  0  0  0  0  0  0  0  0  0  0
    7.2117   -0.2787    0.0000 O   0  0  0  0  0  0  0  0  0  0  0  0
    7.3755   -1.7697    0.0000 C   0  0  1  0  0  0  0  0  0  0  0  0
    6.0081   -2.3862    0.0000 C   0  0  0  0  0  0  0  0  0  0  0  0
    8.6781   -2.5136    0.0000 C   0  0  0  0  0  0  0  0  0  0  0  0
    9.4220   -1.2110    0.0000 C   0  0  0  0  0  0  0  0  0  0  0  0
    9.9806   -3.2575    0.0000 C   0  0  0  0  0  0  0  0  0  0  0  0
    7.9342   -3.8161    0.0000 O   0  0  0  0  0  0  0  0  0  0  0  0
    7.9869    1.3359    0.0000 C   0  0  0  0  0  0  0  0  0  0  0  0
    7.2308    2.6314    0.0000 C   0  0  0  0  0  0  0  0  0  0  0  0
    5.7308    2.6244    0.0000 C   0  0  0  0  0  0  0  0  0  0  0  0
    4.9747    3.9198    0.0000 C   0  0  0  0  0  0  0  0  0  0  0  0
    5.7186    5.2224    0.0000 O   0  0  0  0  0  0  0  0  0  0  0  0
    7.9747    3.9340    0.0000 C   0  0  0  0  0  0  0  0  0  0  0  0
   -1.0130    1.2936    0.0000 C   0  0  0  0  0  0  0  0  0  0  0  0
   -1.0059   -0.2064    0.0000 C   0  0  0  0  0  0  0  0  0  0  0  0
   -1.0200    2.7936    0.0000 C   0  0  0  0  0  0  0  0  0  0  0  0
   -2.5130    1.2865    0.0000 C   0  0  0  0  0  0  0  0  0  0  0  0
   -3.2569   -0.0160    0.0000 C   0  0  0  0  0  0  0  0  0  0  0  0
    0.6480   -1.0369    0.0000 H   0  0  0  0  0  0  0  0  0  0  0  0
  1  2  2  0  0  0  0
  1  6  1  0  0  0  0
  2  3  1  0  0  0  0
  3  4  2  0  0  0  0
  4  5  1  0  0  0  0
  5  6  2  0  0  0  0
  5 11  1  0  0  0  0
  6  7  1  0  0  0  0
  7  8  2  0  0  0  0
  8  9  1  0  0  0  0
  9 10  2  0  0  0  0
  9 11  1  0  0  0  0
  1 12  1  0  0  0  0
 13 14  1  0  0  0  0
 14 15  1  0  0  0  0
 14 16  1  6  0  0  0
 16 17  1  0  0  0  0
 16 18  1  0  0  0  0
 16 19  1  0  0  0  0
  2 15  1  0  0  0  0
  3 13  1  0  0  0  0
 20 21  1  0  0  0  0
 21 22  2  0  0  0  0
 21 25  1  0  0  0  0
 22 23  1  0  0  0  0
 23 24  2  0  0  0  0
  4 22  1  0  0  0  0
 26 27  1  0  0  0  0
 26 28  1  0  0  0  0
 26 29  1  0  0  0  0
 29 30  2  0  0  0  0
  8 26  1  0  0  0  0
  7 31  1  0  0  0  0
M  END
> <score_KierA2>
0.516815

$$$$
suggested molecule #593
 MOE2019            2D

 31 33  0  0  1  0  0  0  0  0999 V2000
    3.4992   -1.2833    0.0000 C   0  0  0  0  0  0  0  0  0  1  0  0
    4.9992   -1.2762    0.0000 C   0  0  0  0  0  0  0  0  0  2  0  0
    5.7430    0.0263    0.0000 C   0  0  0  0  0  0  0  0  0  3  0  0
    4.9869    1.3218    0.0000 C   0  0  0  0  0  0  0  0  0  4  0  0
    3.4870    1.3147    0.0000 C   0  0  0  0  0  0  0  0  0  5  0  0
    2.7431    0.0122    0.0000 C   0  0  0  0  0  0  0  0  0  6  0  0
    1.2431    0.0051    0.0000 C   0  0  0  0  0  0  0  0  0  7  0  0
    0.4870    1.3006    0.0000 C   0  0  0  0  0  0  0  0  0  8  0  0
    1.2309    2.6032    0.0000 C   0  0  0  0  0  0  0  0  0  9  0  0
    0.4748    3.8987    0.0000 O   0  0  0  0  0  0  0  0  0 10  0  0
    2.7309    2.6102    0.0000 O   0  0  0  0  0  0  0  0  0 11  0  0
    2.9041   -2.3253    0.0000 H   0  0  0  0  0  0  0  0  0  0  0  0
    7.2117   -0.2787    0.0000 O   0  0  0  0  0  0  0  0  0  0  0  0
    7.3755   -1.7697    0.0000 C   0  0  1  0  0  0  0  0  0  0  0  0
    6.0081   -2.3862    0.0000 C   0  0  0  0  0  0  0  0  0  0  0  0
    8.6781   -2.5136    0.0000 C   0  0  0  0  0  0  0  0  0  0  0  0
    9.4220   -1.2110    0.0000 C   0  0  0  0  0  0  0  0  0  0  0  0
    9.9806   -3.2575    0.0000 C   0  0  0  0  0  0  0  0  0  0  0  0
    7.9342   -3.8161    0.0000 O   0  0  0  0  0  0  0  0  0  0  0  0
    7.9869    1.3359    0.0000 C   0  0  0  0  0  0  0  0  0  0  0  0
    7.2308    2.6314    0.0000 C   0  0  0  0  0  0  0  0  0  0  0  0
    5.7308    2.6244    0.0000 C   0  0  0  0  0  0  0  0  0  0  0  0
    4.9747    3.9198    0.0000 C   0  0  0  0  0  0  0  0  0  0  0  0
    5.7186    5.2224    0.0000 O   0  0  0  0  0  0  0  0  0  0  0  0
    7.9747    3.9340    0.0000 C   0  0  0  0  0  0  0  0  0  0  0  0
   -1.0130    1.2936    0.0000 C   0  0  0  0  0  0  0  0  0  0  0  0
   -1.0059   -0.2064    0.0000 C   0  0  0  0  0  0  0  0  0  0  0  0
   -1.0200    2.7936    0.0000 C   0  0  0  0  0  0  0  0  0  0  0  0
   -2.5130    1.2865    0.0000 C   0  0  0  0  0  0  0  0  0  0  0  0
   -3.2569   -0.0160    0.0000 C   0  0  0  0  0  0  0  0  0  0  0  0
    0.6480   -1.0369    0.0000 H   0  0  0  0  0  0  0  0  0  0  0  0
  1  2  2  0  0  0  0
  1  6  1  0  0  0  0
  2  3  1  0  0  0  0
  3  4  2  0  0  0  0
  4  5  1  0  0  0  0
  5  6  2  0  0  0  0
  5 11  1  0  0  0  0
  6  7  1  0  0  0  0
  7  8  2  0  0  0  0
  8  9  1  0  0  0  0
  9 10  2  0  0  0  0
  9 11  1  0  0  0  0
  1 12  1  0  0  0  0
 13 14  1  0  0  0  0
 14 15  1  0  0  0  0
 14 16  1  6  0  0  0
 16 17  1  0  0  0  0
 16 18  1  0  0  0  0
 16 19  1  0  0  0  0
  2 15  1  0  0  0  0
  3 13  1  0  0  0  0
 20 21  1  0  0  0  0
 21 22  2  0  0  0  0
 21 25  1  0  0  0  0
 22 23  1  0  0  0  0
 23 24  2  0  0  0  0
  4 22  1  0  0  0  0
 26 27  1  0  0  0  0
 26 28  1  0  0  0  0
 26 29  1  0  0  0  0
 29 30  2  0  0  0  0
  8 26  1  0  0  0  0
  7 31  1  0  0  0  0
M  END
> <score_KierFlex>
0.516284

$$$$
suggested molecule #594
 MOE2019            2D

 29 31  0  0  1  0  0  0  0  0999 V2000
    3.4992   -1.2833    0.0000 C   0  0  0  0  0  0  0  0  0  1  0  0
    4.9992   -1.2762    0.0000 C   0  0  0  0  0  0  0  0  0  2  0  0
    5.7430    0.0263    0.0000 C   0  0  0  0  0  0  0  0  0  3  0  0
    4.9869    1.3218    0.0000 C   0  0  0  0  0  0  0  0  0  4  0  0
    3.4870    1.3147    0.0000 C   0  0  0  0  0  0  0  0  0  5  0  0
    2.7431    0.0122    0.0000 C   0  0  0  0  0  0  0  0  0  6  0  0
    1.2431    0.0051    0.0000 C   0  0  0  0  0  0  0  0  0  7  0  0
    0.4870    1.3006    0.0000 C   0  0  0  0  0  0  0  0  0  8  0  0
    1.2309    2.6032    0.0000 C   0  0  0  0  0  0  0  0  0  9  0  0
    0.4748    3.8987    0.0000 O   0  0  0  0  0  0  0  0  0 10  0  0
    2.7309    2.6102    0.0000 O   0  0  0  0  0  0  0  0  0 11  0  0
    2.9041   -2.3253    0.0000 H   0  0  0  0  0  0  0  0  0  0  0  0
    7.2117   -0.2787    0.0000 O   0  0  0  0  0  0  0  0  0  0  0  0
    7.3755   -1.7697    0.0000 C   0  0  1  0  0  0  0  0  0  0  0  0
    6.0081   -2.3862    0.0000 C   0  0  0  0  0  0  0  0  0  0  0  0
    8.6781   -2.5136    0.0000 C   0  0  0  0  0  0  0  0  0  0  0  0
    9.4220   -1.2110    0.0000 C   0  0  0  0  0  0  0  0  0  0  0  0
    9.9806   -3.2575    0.0000 C   0  0  0  0  0  0  0  0  0  0  0  0
    7.9342   -3.8161    0.0000 O   0  0  0  0  0  0  0  0  0  0  0  0
    5.7308    2.6244    0.0000 O   0  0  0  0  0  0  0  0  0  0  0  0
    7.2308    2.6314    0.0000 C   0  0  0  0  0  0  0  0  0  0  0  0
    7.9869    1.3359    0.0000 O   0  0  0  0  0  0  0  0  0  0  0  0
    7.9747    3.9340    0.0000 C   0  0  0  0  0  0  0  0  0  0  0  0
   -1.0130    1.2936    0.0000 C   0  0  0  0  0  0  0  0  0  0  0  0
   -1.0200    2.7936    0.0000 C   0  0  0  0  0  0  0  0  0  0  0  0
   -1.0059   -0.2064    0.0000 C   0  0  0  0  0  0  0  0  0  0  0  0
   -2.5130    1.2865    0.0000 C   0  0  0  0  0  0  0  0  0  0  0  0
   -3.2569   -0.0160    0.0000 C   0  0  0  0  0  0  0  0  0  0  0  0
    0.6480   -1.0369    0.0000 H   0  0  0  0  0  0  0  0  0  0  0  0
  1  2  2  0  0  0  0
  1  6  1  0  0  0  0
  2  3  1  0  0  0  0
  3  4  2  0  0  0  0
  4  5  1  0  0  0  0
  5  6  2  0  0  0  0
  5 11  1  0  0  0  0
  6  7  1  0  0  0  0
  7  8  2  0  0  0  0
  8  9  1  0  0  0  0
  9 10  2  0  0  0  0
  9 11  1  0  0  0  0
  1 12  1  0  0  0  0
 13 14  1  0  0  0  0
 14 15  1  0  0  0  0
 14 16  1  6  0  0  0
 16 17  1  0  0  0  0
 16 18  1  0  0  0  0
 16 19  1  0  0  0  0
  2 15  1  0  0  0  0
  3 13  1  0  0  0  0
 20 21  1  0  0  0  0
 21 22  2  0  0  0  0
 21 23  1  0  0  0  0
  4 20  1  0  0  0  0
 24 25  1  0  0  0  0
 24 26  1  0  0  0  0
 24 27  1  0  0  0  0
 27 28  2  0  0  0  0
  8 24  1  0  0  0  0
  7 29  1  0  0  0  0
M  END
> <score_Kier2>
0.516488

$$$$
suggested molecule #595
 MOE2019            2D

 33 35  0  0  1  0  0  0  0  0999 V2000
    3.4992   -1.2833    0.0000 C   0  0  0  0  0  0  0  0  0  1  0  0
    4.9992   -1.2762    0.0000 C   0  0  0  0  0  0  0  0  0  2  0  0
    5.7430    0.0263    0.0000 C   0  0  0  0  0  0  0  0  0  3  0  0
    4.9869    1.3218    0.0000 C   0  0  0  0  0  0  0  0  0  4  0  0
    3.4870    1.3147    0.0000 C   0  0  0  0  0  0  0  0  0  5  0  0
    2.7431    0.0122    0.0000 C   0  0  0  0  0  0  0  0  0  6  0  0
    1.2431    0.0051    0.0000 C   0  0  0  0  0  0  0  0  0  7  0  0
    0.4870    1.3006    0.0000 C   0  0  0  0  0  0  0  0  0  8  0  0
    1.2309    2.6032    0.0000 C   0  0  0  0  0  0  0  0  0  9  0  0
    0.4748    3.8987    0.0000 O   0  0  0  0  0  0  0  0  0 10  0  0
    2.7309    2.6102    0.0000 O   0  0  0  0  0  0  0  0  0 11  0  0
    2.9041   -2.3253    0.0000 H   0  0  0  0  0  0  0  0  0  0  0  0
    7.2117   -0.2787    0.0000 O   0  0  0  0  0  0  0  0  0  0  0  0
    7.3755   -1.7697    0.0000 C   0  0  1  0  0  0  0  0  0  0  0  0
    6.0081   -2.3862    0.0000 C   0  0  0  0  0  0  0  0  0  0  0  0
    8.6781   -2.5136    0.0000 C   0  0  0  0  0  0  0  0  0  0  0  0
    9.4220   -1.2110    0.0000 C   0  0  0  0  0  0  0  0  0  0  0  0
    9.9806   -3.2575    0.0000 C   0  0  0  0  0  0  0  0  0  0  0  0
    7.9342   -3.8161    0.0000 O   0  0  0  0  0  0  0  0  0  0  0  0
    9.2772    3.1901    0.0000 C   0  0  0  0  0  0  0  0  0  0  0  0
    7.9747    3.9340    0.0000 C   0  0  0  0  0  0  0  0  0  0  0  0
    6.6721    4.6778    0.0000 C   0  0  0  0  0  0  0  0  0  0  0  0
    7.2308    2.6314    0.0000 C   0  0  0  0  0  0  0  0  0  0  0  0
    5.7308    2.6244    0.0000 C   0  0  0  0  0  0  0  0  0  0  0  0
    7.9869    1.3359    0.0000 O   0  0  0  0  0  0  0  0  0  0  0  0
    8.7186    5.2365    0.0000 O   0  0  0  0  0  0  0  0  0  0  0  0
   10.2186    5.2436    0.0000 C   0  0  0  0  0  0  0  0  0  0  0  0
   -1.0130    1.2936    0.0000 C   0  0  0  0  0  0  0  0  0  0  0  0
   -1.0059   -0.2064    0.0000 C   0  0  0  0  0  0  0  0  0  0  0  0
   -1.0200    2.7936    0.0000 C   0  0  0  0  0  0  0  0  0  0  0  0
   -2.5130    1.2865    0.0000 C   0  0  0  0  0  0  0  0  0  0  0  0
   -3.2569   -0.0160    0.0000 C   0  0  0  0  0  0  0  0  0  0  0  0
    0.6480   -1.0369    0.0000 H   0  0  0  0  0  0  0  0  0  0  0  0
  1  2  2  0  0  0  0
  1  6  1  0  0  0  0
  2  3  1  0  0  0  0
  3  4  2  0  0  0  0
  4  5  1  0  0  0  0
  5  6  2  0  0  0  0
  5 11  1  0  0  0  0
  6  7  1  0  0  0  0
  7  8  2  0  0  0  0
  8  9  1  0  0  0  0
  9 10  2  0  0  0  0
  9 11  1  0  0  0  0
  1 12  1  0  0  0  0
 13 14  1  0  0  0  0
 14 15  1  0  0  0  0
 14 16  1  6  0  0  0
 16 17  1  0  0  0  0
 16 18  1  0  0  0  0
 16 19  1  0  0  0  0
  2 15  1  0  0  0  0
  3 13  1  0  0  0  0
 20 21  1  0  0  0  0
 21 22  1  0  0  0  0
 21 23  1  0  0  0  0
 21 26  1  0  0  0  0
 23 24  1  0  0  0  0
 23 25  1  0  0  0  0
 26 27  1  0  0  0  0
  4 24  1  0  0  0  0
 28 29  1  0  0  0  0
 28 30  1  0  0  0  0
 28 31  1  0  0  0  0
 31 32  2  0  0  0  0
  8 28  1  0  0  0  0
  7 33  1  0  0  0  0
M  END
> <score_Kier1>
0.517801

$$$$
suggested molecule #596
 MOE2019            2D

 33 35  0  0  1  0  0  0  0  0999 V2000
    3.4992   -1.2833    0.0000 C   0  0  0  0  0  0  0  0  0  1  0  0
    4.9992   -1.2762    0.0000 C   0  0  0  0  0  0  0  0  0  2  0  0
    5.7430    0.0263    0.0000 C   0  0  0  0  0  0  0  0  0  3  0  0
    4.9869    1.3218    0.0000 C   0  0  0  0  0  0  0  0  0  4  0  0
    3.4870    1.3147    0.0000 C   0  0  0  0  0  0  0  0  0  5  0  0
    2.7431    0.0122    0.0000 C   0  0  0  0  0  0  0  0  0  6  0  0
    1.2431    0.0051    0.0000 C   0  0  0  0  0  0  0  0  0  7  0  0
    0.4870    1.3006    0.0000 C   0  0  0  0  0  0  0  0  0  8  0  0
    1.2309    2.6032    0.0000 C   0  0  0  0  0  0  0  0  0  9  0  0
    0.4748    3.8987    0.0000 O   0  0  0  0  0  0  0  0  0 10  0  0
    2.7309    2.6102    0.0000 O   0  0  0  0  0  0  0  0  0 11  0  0
    2.9041   -2.3253    0.0000 H   0  0  0  0  0  0  0  0  0  0  0  0
    7.2117   -0.2787    0.0000 O   0  0  0  0  0  0  0  0  0  0  0  0
    7.3755   -1.7697    0.0000 C   0  0  1  0  0  0  0  0  0  0  0  0
    6.0081   -2.3862    0.0000 C   0  0  0  0  0  0  0  0  0  0  0  0
    8.6781   -2.5136    0.0000 C   0  0  0  0  0  0  0  0  0  0  0  0
    9.4220   -1.2110    0.0000 C   0  0  0  0  0  0  0  0  0  0  0  0
    9.9806   -3.2575    0.0000 C   0  0  0  0  0  0  0  0  0  0  0  0
    7.9342   -3.8161    0.0000 O   0  0  0  0  0  0  0  0  0  0  0  0
    9.2772    3.1901    0.0000 C   0  0  0  0  0  0  0  0  0  0  0  0
    7.9747    3.9340    0.0000 C   0  0  0  0  0  0  0  0  0  0  0  0
    6.6721    4.6778    0.0000 C   0  0  0  0  0  0  0  0  0  0  0  0
    7.2308    2.6314    0.0000 C   0  0  0  0  0  0  0  0  0  0  0  0
    5.7308    2.6244    0.0000 C   0  0  0  0  0  0  0  0  0  0  0  0
    7.9869    1.3359    0.0000 O   0  0  0  0  0  0  0  0  0  0  0  0
    8.7186    5.2365    0.0000 O   0  0  0  0  0  0  0  0  0  0  0  0
   10.2186    5.2436    0.0000 C   0  0  0  0  0  0  0  0  0  0  0  0
   -1.0130    1.2936    0.0000 C   0  0  0  0  0  0  0  0  0  0  0  0
   -1.0059   -0.2064    0.0000 C   0  0  0  0  0  0  0  0  0  0  0  0
   -1.0200    2.7936    0.0000 C   0  0  0  0  0  0  0  0  0  0  0  0
   -2.5130    1.2865    0.0000 C   0  0  0  0  0  0  0  0  0  0  0  0
   -3.2569   -0.0160    0.0000 C   0  0  0  0  0  0  0  0  0  0  0  0
    0.6480   -1.0369    0.0000 H   0  0  0  0  0  0  0  0  0  0  0  0
  1  2  2  0  0  0  0
  1  6  1  0  0  0  0
  2  3  1  0  0  0  0
  3  4  2  0  0  0  0
  4  5  1  0  0  0  0
  5  6  2  0  0  0  0
  5 11  1  0  0  0  0
  6  7  1  0  0  0  0
  7  8  2  0  0  0  0
  8  9  1  0  0  0  0
  9 10  2  0  0  0  0
  9 11  1  0  0  0  0
  1 12  1  0  0  0  0
 13 14  1  0  0  0  0
 14 15  1  0  0  0  0
 14 16  1  6  0  0  0
 16 17  1  0  0  0  0
 16 18  1  0  0  0  0
 16 19  1  0  0  0  0
  2 15  1  0  0  0  0
  3 13  1  0  0  0  0
 20 21  1  0  0  0  0
 21 22  1  0  0  0  0
 21 23  1  0  0  0  0
 21 26  1  0  0  0  0
 23 24  1  0  0  0  0
 23 25  1  0  0  0  0
 26 27  1  0  0  0  0
  4 24  1  0  0  0  0
 28 29  1  0  0  0  0
 28 30  1  0  0  0  0
 28 31  1  0  0  0  0
 31 32  2  0  0  0  0
  8 28  1  0  0  0  0
  7 33  1  0  0  0  0
M  END
> <score_Kier2>
0.516606

$$$$
suggested molecule #597
 MOE2019            2D

 33 35  0  0  1  0  0  0  0  0999 V2000
    3.4992   -1.2833    0.0000 C   0  0  0  0  0  0  0  0  0  1  0  0
    4.9992   -1.2762    0.0000 C   0  0  0  0  0  0  0  0  0  2  0  0
    5.7430    0.0263    0.0000 C   0  0  0  0  0  0  0  0  0  3  0  0
    4.9869    1.3218    0.0000 C   0  0  0  0  0  0  0  0  0  4  0  0
    3.4870    1.3147    0.0000 C   0  0  0  0  0  0  0  0  0  5  0  0
    2.7431    0.0122    0.0000 C   0  0  0  0  0  0  0  0  0  6  0  0
    1.2431    0.0051    0.0000 C   0  0  0  0  0  0  0  0  0  7  0  0
    0.4870    1.3006    0.0000 C   0  0  0  0  0  0  0  0  0  8  0  0
    1.2309    2.6032    0.0000 C   0  0  0  0  0  0  0  0  0  9  0  0
    0.4748    3.8987    0.0000 O   0  0  0  0  0  0  0  0  0 10  0  0
    2.7309    2.6102    0.0000 O   0  0  0  0  0  0  0  0  0 11  0  0
    2.9041   -2.3253    0.0000 H   0  0  0  0  0  0  0  0  0  0  0  0
    7.2117   -0.2787    0.0000 O   0  0  0  0  0  0  0  0  0  0  0  0
    7.3755   -1.7697    0.0000 C   0  0  1  0  0  0  0  0  0  0  0  0
    6.0081   -2.3862    0.0000 C   0  0  0  0  0  0  0  0  0  0  0  0
    8.6781   -2.5136    0.0000 C   0  0  0  0  0  0  0  0  0  0  0  0
    9.4220   -1.2110    0.0000 C   0  0  0  0  0  0  0  0  0  0  0  0
    9.9806   -3.2575    0.0000 C   0  0  0  0  0  0  0  0  0  0  0  0
    7.9342   -3.8161    0.0000 O   0  0  0  0  0  0  0  0  0  0  0  0
    9.2772    3.1901    0.0000 C   0  0  0  0  0  0  0  0  0  0  0  0
    7.9747    3.9340    0.0000 C   0  0  0  0  0  0  0  0  0  0  0  0
    6.6721    4.6778    0.0000 C   0  0  0  0  0  0  0  0  0  0  0  0
    7.2308    2.6314    0.0000 C   0  0  0  0  0  0  0  0  0  0  0  0
    5.7308    2.6244    0.0000 C   0  0  0  0  0  0  0  0  0  0  0  0
    7.9869    1.3359    0.0000 O   0  0  0  0  0  0  0  0  0  0  0  0
    8.7186    5.2365    0.0000 O   0  0  0  0  0  0  0  0  0  0  0  0
   10.2186    5.2436    0.0000 C   0  0  0  0  0  0  0  0  0  0  0  0
   -1.0130    1.2936    0.0000 C   0  0  0  0  0  0  0  0  0  0  0  0
   -1.0059   -0.2064    0.0000 C   0  0  0  0  0  0  0  0  0  0  0  0
   -1.0200    2.7936    0.0000 C   0  0  0  0  0  0  0  0  0  0  0  0
   -2.5130    1.2865    0.0000 C   0  0  0  0  0  0  0  0  0  0  0  0
   -3.2569   -0.0160    0.0000 C   0  0  0  0  0  0  0  0  0  0  0  0
    0.6480   -1.0369    0.0000 H   0  0  0  0  0  0  0  0  0  0  0  0
  1  2  2  0  0  0  0
  1  6  1  0  0  0  0
  2  3  1  0  0  0  0
  3  4  2  0  0  0  0
  4  5  1  0  0  0  0
  5  6  2  0  0  0  0
  5 11  1  0  0  0  0
  6  7  1  0  0  0  0
  7  8  2  0  0  0  0
  8  9  1  0  0  0  0
  9 10  2  0  0  0  0
  9 11  1  0  0  0  0
  1 12  1  0  0  0  0
 13 14  1  0  0  0  0
 14 15  1  0  0  0  0
 14 16  1  6  0  0  0
 16 17  1  0  0  0  0
 16 18  1  0  0  0  0
 16 19  1  0  0  0  0
  2 15  1  0  0  0  0
  3 13  1  0  0  0  0
 20 21  1  0  0  0  0
 21 22  1  0  0  0  0
 21 23  1  0  0  0  0
 21 26  1  0  0  0  0
 23 24  1  0  0  0  0
 23 25  1  0  0  0  0
 26 27  1  0  0  0  0
  4 24  1  0  0  0  0
 28 29  1  0  0  0  0
 28 30  1  0  0  0  0
 28 31  1  0  0  0  0
 31 32  2  0  0  0  0
  8 28  1  0  0  0  0
  7 33  1  0  0  0  0
M  END
> <score_KierA1>
0.517625

$$$$
suggested molecule #598
 MOE2019            2D

 33 35  0  0  1  0  0  0  0  0999 V2000
    3.4992   -1.2833    0.0000 C   0  0  0  0  0  0  0  0  0  1  0  0
    4.9992   -1.2762    0.0000 C   0  0  0  0  0  0  0  0  0  2  0  0
    5.7430    0.0263    0.0000 C   0  0  0  0  0  0  0  0  0  3  0  0
    4.9869    1.3218    0.0000 C   0  0  0  0  0  0  0  0  0  4  0  0
    3.4870    1.3147    0.0000 C   0  0  0  0  0  0  0  0  0  5  0  0
    2.7431    0.0122    0.0000 C   0  0  0  0  0  0  0  0  0  6  0  0
    1.2431    0.0051    0.0000 C   0  0  0  0  0  0  0  0  0  7  0  0
    0.4870    1.3006    0.0000 C   0  0  0  0  0  0  0  0  0  8  0  0
    1.2309    2.6032    0.0000 C   0  0  0  0  0  0  0  0  0  9  0  0
    0.4748    3.8987    0.0000 O   0  0  0  0  0  0  0  0  0 10  0  0
    2.7309    2.6102    0.0000 O   0  0  0  0  0  0  0  0  0 11  0  0
    2.9041   -2.3253    0.0000 H   0  0  0  0  0  0  0  0  0  0  0  0
    7.2117   -0.2787    0.0000 O   0  0  0  0  0  0  0  0  0  0  0  0
    7.3755   -1.7697    0.0000 C   0  0  1  0  0  0  0  0  0  0  0  0
    6.0081   -2.3862    0.0000 C   0  0  0  0  0  0  0  0  0  0  0  0
    8.6781   -2.5136    0.0000 C   0  0  0  0  0  0  0  0  0  0  0  0
    9.4220   -1.2110    0.0000 C   0  0  0  0  0  0  0  0  0  0  0  0
    9.9806   -3.2575    0.0000 C   0  0  0  0  0  0  0  0  0  0  0  0
    7.9342   -3.8161    0.0000 O   0  0  0  0  0  0  0  0  0  0  0  0
    9.2772    3.1901    0.0000 C   0  0  0  0  0  0  0  0  0  0  0  0
    7.9747    3.9340    0.0000 C   0  0  0  0  0  0  0  0  0  0  0  0
    6.6721    4.6778    0.0000 C   0  0  0  0  0  0  0  0  0  0  0  0
    7.2308    2.6314    0.0000 C   0  0  0  0  0  0  0  0  0  0  0  0
    5.7308    2.6244    0.0000 C   0  0  0  0  0  0  0  0  0  0  0  0
    7.9869    1.3359    0.0000 O   0  0  0  0  0  0  0  0  0  0  0  0
    8.7186    5.2365    0.0000 O   0  0  0  0  0  0  0  0  0  0  0  0
   10.2186    5.2436    0.0000 C   0  0  0  0  0  0  0  0  0  0  0  0
   -1.0130    1.2936    0.0000 C   0  0  0  0  0  0  0  0  0  0  0  0
   -1.0059   -0.2064    0.0000 C   0  0  0  0  0  0  0  0  0  0  0  0
   -1.0200    2.7936    0.0000 C   0  0  0  0  0  0  0  0  0  0  0  0
   -2.5130    1.2865    0.0000 C   0  0  0  0  0  0  0  0  0  0  0  0
   -3.2569   -0.0160    0.0000 C   0  0  0  0  0  0  0  0  0  0  0  0
    0.6480   -1.0369    0.0000 H   0  0  0  0  0  0  0  0  0  0  0  0
  1  2  2  0  0  0  0
  1  6  1  0  0  0  0
  2  3  1  0  0  0  0
  3  4  2  0  0  0  0
  4  5  1  0  0  0  0
  5  6  2  0  0  0  0
  5 11  1  0  0  0  0
  6  7  1  0  0  0  0
  7  8  2  0  0  0  0
  8  9  1  0  0  0  0
  9 10  2  0  0  0  0
  9 11  1  0  0  0  0
  1 12  1  0  0  0  0
 13 14  1  0  0  0  0
 14 15  1  0  0  0  0
 14 16  1  6  0  0  0
 16 17  1  0  0  0  0
 16 18  1  0  0  0  0
 16 19  1  0  0  0  0
  2 15  1  0  0  0  0
  3 13  1  0  0  0  0
 20 21  1  0  0  0  0
 21 22  1  0  0  0  0
 21 23  1  0  0  0  0
 21 26  1  0  0  0  0
 23 24  1  0  0  0  0
 23 25  1  0  0  0  0
 26 27  1  0  0  0  0
  4 24  1  0  0  0  0
 28 29  1  0  0  0  0
 28 30  1  0  0  0  0
 28 31  1  0  0  0  0
 31 32  2  0  0  0  0
  8 28  1  0  0  0  0
  7 33  1  0  0  0  0
M  END
> <score_KierA2>
0.516794

$$$$
suggested molecule #599
 MOE2019            2D

 35 37  0  0  1  0  0  0  0  0999 V2000
    3.4992   -1.2833    0.0000 C   0  0  0  0  0  0  0  0  0  1  0  0
    4.9992   -1.2762    0.0000 C   0  0  0  0  0  0  0  0  0  2  0  0
    5.7430    0.0263    0.0000 C   0  0  0  0  0  0  0  0  0  3  0  0
    4.9869    1.3218    0.0000 C   0  0  0  0  0  0  0  0  0  4  0  0
    3.4870    1.3147    0.0000 C   0  0  0  0  0  0  0  0  0  5  0  0
    2.7431    0.0122    0.0000 C   0  0  0  0  0  0  0  0  0  6  0  0
    1.2431    0.0051    0.0000 C   0  0  0  0  0  0  0  0  0  7  0  0
    0.4870    1.3006    0.0000 C   0  0  0  0  0  0  0  0  0  8  0  0
    1.2309    2.6032    0.0000 C   0  0  0  0  0  0  0  0  0  9  0  0
    0.4748    3.8987    0.0000 O   0  0  0  0  0  0  0  0  0 10  0  0
    2.7309    2.6102    0.0000 O   0  0  0  0  0  0  0  0  0 11  0  0
    2.9041   -2.3253    0.0000 H   0  0  0  0  0  0  0  0  0  0  0  0
    7.2117   -0.2787    0.0000 O   0  0  0  0  0  0  0  0  0  0  0  0
    7.3755   -1.7697    0.0000 C   0  0  1  0  0  0  0  0  0  0  0  0
    6.0081   -2.3862    0.0000 C   0  0  0  0  0  0  0  0  0  0  0  0
    8.6781   -2.5136    0.0000 C   0  0  0  0  0  0  0  0  0  0  0  0
    9.9806   -3.2575    0.0000 C   0  0  0  0  0  0  0  0  0  0  0  0
    7.9342   -3.8161    0.0000 C   0  0  0  0  0  0  0  0  0  0  0  0
    9.4220   -1.2110    0.0000 O   0  0  0  0  0  0  0  0  0  0  0  0
    7.2430    0.0334    0.0000 C   0  0  0  0  0  0  0  0  0  0  0  0
    7.9869    1.3359    0.0000 C   0  0  0  0  0  0  0  0  0  0  0  0
    9.4869    1.3430    0.0000 C   0  0  0  0  0  0  0  0  0  0  0  0
    7.2308    2.6314    0.0000 C   0  0  0  0  0  0  0  0  0  0  0  0
    7.9747    3.9340    0.0000 O   0  0  0  0  0  0  0  0  0  0  0  0
    5.7308    2.6244    0.0000 C   0  0  0  0  0  0  0  0  0  0  0  0
    4.9747    3.9198    0.0000 O   0  0  0  0  0  0  0  0  0  0  0  0
    5.7186    5.2224    0.0000 C   0  0  0  0  0  0  0  0  0  0  0  0
    7.2186    5.2295    0.0000 O   0  0  0  0  0  0  0  0  0  0  0  0
    4.9625    6.5179    0.0000 C   0  0  0  0  0  0  0  0  0  0  0  0
   -1.0130    1.2936    0.0000 C   0  0  0  0  0  0  0  0  0  0  0  0
   -1.0200    2.7936    0.0000 C   0  0  0  0  0  0  0  0  0  0  0  0
   -1.0059   -0.2064    0.0000 C   0  0  0  0  0  0  0  0  0  0  0  0
   -2.5130    1.2865    0.0000 C   0  0  0  0  0  0  0  0  0  0  0  0
   -3.2569   -0.0160    0.0000 C   0  0  0  0  0  0  0  0  0  0  0  0
    0.6480   -1.0369    0.0000 H   0  0  0  0  0  0  0  0  0  0  0  0
  1  2  2  0  0  0  0
  1  6  1  0  0  0  0
  2  3  1  0  0  0  0
  3  4  2  0  0  0  0
  4  5  1  0  0  0  0
  5  6  2  0  0  0  0
  5 11  1  0  0  0  0
  6  7  1  0  0  0  0
  7  8  2  0  0  0  0
  8  9  1  0  0  0  0
  9 10  2  0  0  0  0
  9 11  1  0  0  0  0
  1 12  1  0  0  0  0
 13 14  1  0  0  0  0
 14 15  1  0  0  0  0
 14 16  1  6  0  0  0
 16 17  1  0  0  0  0
 16 18  1  0  0  0  0
 16 19  1  0  0  0  0
  2 15  1  0  0  0  0
  3 13  1  0  0  0  0
 20 21  1  0  0  0  0
 21 22  1  0  0  0  0
 21 23  1  0  0  0  0
 23 24  2  0  0  0  0
 23 25  1  0  0  0  0
 25 26  1  0  0  0  0
 26 27  1  0  0  0  0
 27 28  2  0  0  0  0
 27 29  1  0  0  0  0
  4 25  1  0  0  0  0
 30 31  1  0  0  0  0
 30 32  1  0  0  0  0
 30 33  1  0  0  0  0
 33 34  2  0  0  0  0
  8 30  1  0  0  0  0
  7 35  1  0  0  0  0
M  END
> <score_Kier1>
0.517787

$$$$
suggested molecule #600
 MOE2019            2D

 35 37  0  0  1  0  0  0  0  0999 V2000
    3.4992   -1.2833    0.0000 C   0  0  0  0  0  0  0  0  0  1  0  0
    4.9992   -1.2762    0.0000 C   0  0  0  0  0  0  0  0  0  2  0  0
    5.7430    0.0263    0.0000 C   0  0  0  0  0  0  0  0  0  3  0  0
    4.9869    1.3218    0.0000 C   0  0  0  0  0  0  0  0  0  4  0  0
    3.4870    1.3147    0.0000 C   0  0  0  0  0  0  0  0  0  5  0  0
    2.7431    0.0122    0.0000 C   0  0  0  0  0  0  0  0  0  6  0  0
    1.2431    0.0051    0.0000 C   0  0  0  0  0  0  0  0  0  7  0  0
    0.4870    1.3006    0.0000 C   0  0  0  0  0  0  0  0  0  8  0  0
    1.2309    2.6032    0.0000 C   0  0  0  0  0  0  0  0  0  9  0  0
    0.4748    3.8987    0.0000 O   0  0  0  0  0  0  0  0  0 10  0  0
    2.7309    2.6102    0.0000 O   0  0  0  0  0  0  0  0  0 11  0  0
    2.9041   -2.3253    0.0000 H   0  0  0  0  0  0  0  0  0  0  0  0
    7.2117   -0.2787    0.0000 O   0  0  0  0  0  0  0  0  0  0  0  0
    7.3755   -1.7697    0.0000 C   0  0  1  0  0  0  0  0  0  0  0  0
    6.0081   -2.3862    0.0000 C   0  0  0  0  0  0  0  0  0  0  0  0
    8.6781   -2.5136    0.0000 C   0  0  0  0  0  0  0  0  0  0  0  0
    9.9806   -3.2575    0.0000 C   0  0  0  0  0  0  0  0  0  0  0  0
    7.9342   -3.8161    0.0000 C   0  0  0  0  0  0  0  0  0  0  0  0
    9.4220   -1.2110    0.0000 O   0  0  0  0  0  0  0  0  0  0  0  0
    7.2430    0.0334    0.0000 C   0  0  0  0  0  0  0  0  0  0  0  0
    7.9869    1.3359    0.0000 C   0  0  0  0  0  0  0  0  0  0  0  0
    9.4869    1.3430    0.0000 C   0  0  0  0  0  0  0  0  0  0  0  0
    7.2308    2.6314    0.0000 C   0  0  0  0  0  0  0  0  0  0  0  0
    7.9747    3.9340    0.0000 O   0  0  0  0  0  0  0  0  0  0  0  0
    5.7308    2.6244    0.0000 C   0  0  0  0  0  0  0  0  0  0  0  0
    4.9747    3.9198    0.0000 O   0  0  0  0  0  0  0  0  0  0  0  0
    5.7186    5.2224    0.0000 C   0  0  0  0  0  0  0  0  0  0  0  0
    7.2186    5.2295    0.0000 O   0  0  0  0  0  0  0  0  0  0  0  0
    4.9625    6.5179    0.0000 C   0  0  0  0  0  0  0  0  0  0  0  0
   -1.0130    1.2936    0.0000 C   0  0  0  0  0  0  0  0  0  0  0  0
   -1.0200    2.7936    0.0000 C   0  0  0  0  0  0  0  0  0  0  0  0
   -1.0059   -0.2064    0.0000 C   0  0  0  0  0  0  0  0  0  0  0  0
   -2.5130    1.2865    0.0000 C   0  0  0  0  0  0  0  0  0  0  0  0
   -3.2569   -0.0160    0.0000 C   0  0  0  0  0  0  0  0  0  0  0  0
    0.6480   -1.0369    0.0000 H   0  0  0  0  0  0  0  0  0  0  0  0
  1  2  2  0  0  0  0
  1  6  1  0  0  0  0
  2  3  1  0  0  0  0
  3  4  2  0  0  0  0
  4  5  1  0  0  0  0
  5  6  2  0  0  0  0
  5 11  1  0  0  0  0
  6  7  1  0  0  0  0
  7  8  2  0  0  0  0
  8  9  1  0  0  0  0
  9 10  2  0  0  0  0
  9 11  1  0  0  0  0
  1 12  1  0  0  0  0
 13 14  1  0  0  0  0
 14 15  1  0  0  0  0
 14 16  1  6  0  0  0
 16 17  1  0  0  0  0
 16 18  1  0  0  0  0
 16 19  1  0  0  0  0
  2 15  1  0  0  0  0
  3 13  1  0  0  0  0
 20 21  1  0  0  0  0
 21 22  1  0  0  0  0
 21 23  1  0  0  0  0
 23 24  2  0  0  0  0
 23 25  1  0  0  0  0
 25 26  1  0  0  0  0
 26 27  1  0  0  0  0
 27 28  2  0  0  0  0
 27 29  1  0  0  0  0
  4 25  1  0  0  0  0
 30 31  1  0  0  0  0
 30 32  1  0  0  0  0
 30 33  1  0  0  0  0
 33 34  2  0  0  0  0
  8 30  1  0  0  0  0
  7 35  1  0  0  0  0
M  END
> <score_Kier2>
0.516586

$$$$
suggested molecule #601
 MOE2019            2D

 35 37  0  0  1  0  0  0  0  0999 V2000
    3.4992   -1.2833    0.0000 C   0  0  0  0  0  0  0  0  0  1  0  0
    4.9992   -1.2762    0.0000 C   0  0  0  0  0  0  0  0  0  2  0  0
    5.7430    0.0263    0.0000 C   0  0  0  0  0  0  0  0  0  3  0  0
    4.9869    1.3218    0.0000 C   0  0  0  0  0  0  0  0  0  4  0  0
    3.4870    1.3147    0.0000 C   0  0  0  0  0  0  0  0  0  5  0  0
    2.7431    0.0122    0.0000 C   0  0  0  0  0  0  0  0  0  6  0  0
    1.2431    0.0051    0.0000 C   0  0  0  0  0  0  0  0  0  7  0  0
    0.4870    1.3006    0.0000 C   0  0  0  0  0  0  0  0  0  8  0  0
    1.2309    2.6032    0.0000 C   0  0  0  0  0  0  0  0  0  9  0  0
    0.4748    3.8987    0.0000 O   0  0  0  0  0  0  0  0  0 10  0  0
    2.7309    2.6102    0.0000 O   0  0  0  0  0  0  0  0  0 11  0  0
    2.9041   -2.3253    0.0000 H   0  0  0  0  0  0  0  0  0  0  0  0
    7.2117   -0.2787    0.0000 O   0  0  0  0  0  0  0  0  0  0  0  0
    7.3755   -1.7697    0.0000 C   0  0  1  0  0  0  0  0  0  0  0  0
    6.0081   -2.3862    0.0000 C   0  0  0  0  0  0  0  0  0  0  0  0
    8.6781   -2.5136    0.0000 C   0  0  0  0  0  0  0  0  0  0  0  0
    9.9806   -3.2575    0.0000 C   0  0  0  0  0  0  0  0  0  0  0  0
    7.9342   -3.8161    0.0000 C   0  0  0  0  0  0  0  0  0  0  0  0
    9.4220   -1.2110    0.0000 O   0  0  0  0  0  0  0  0  0  0  0  0
    7.2430    0.0334    0.0000 C   0  0  0  0  0  0  0  0  0  0  0  0
    7.9869    1.3359    0.0000 C   0  0  0  0  0  0  0  0  0  0  0  0
    9.4869    1.3430    0.0000 C   0  0  0  0  0  0  0  0  0  0  0  0
    7.2308    2.6314    0.0000 C   0  0  0  0  0  0  0  0  0  0  0  0
    7.9747    3.9340    0.0000 O   0  0  0  0  0  0  0  0  0  0  0  0
    5.7308    2.6244    0.0000 C   0  0  0  0  0  0  0  0  0  0  0  0
    4.9747    3.9198    0.0000 O   0  0  0  0  0  0  0  0  0  0  0  0
    5.7186    5.2224    0.0000 C   0  0  0  0  0  0  0  0  0  0  0  0
    7.2186    5.2295    0.0000 O   0  0  0  0  0  0  0  0  0  0  0  0
    4.9625    6.5179    0.0000 C   0  0  0  0  0  0  0  0  0  0  0  0
   -1.0130    1.2936    0.0000 C   0  0  0  0  0  0  0  0  0  0  0  0
   -1.0200    2.7936    0.0000 C   0  0  0  0  0  0  0  0  0  0  0  0
   -1.0059   -0.2064    0.0000 C   0  0  0  0  0  0  0  0  0  0  0  0
   -2.5130    1.2865    0.0000 C   0  0  0  0  0  0  0  0  0  0  0  0
   -3.2569   -0.0160    0.0000 C   0  0  0  0  0  0  0  0  0  0  0  0
    0.6480   -1.0369    0.0000 H   0  0  0  0  0  0  0  0  0  0  0  0
  1  2  2  0  0  0  0
  1  6  1  0  0  0  0
  2  3  1  0  0  0  0
  3  4  2  0  0  0  0
  4  5  1  0  0  0  0
  5  6  2  0  0  0  0
  5 11  1  0  0  0  0
  6  7  1  0  0  0  0
  7  8  2  0  0  0  0
  8  9  1  0  0  0  0
  9 10  2  0  0  0  0
  9 11  1  0  0  0  0
  1 12  1  0  0  0  0
 13 14  1  0  0  0  0
 14 15  1  0  0  0  0
 14 16  1  6  0  0  0
 16 17  1  0  0  0  0
 16 18  1  0  0  0  0
 16 19  1  0  0  0  0
  2 15  1  0  0  0  0
  3 13  1  0  0  0  0
 20 21  1  0  0  0  0
 21 22  1  0  0  0  0
 21 23  1  0  0  0  0
 23 24  2  0  0  0  0
 23 25  1  0  0  0  0
 25 26  1  0  0  0  0
 26 27  1  0  0  0  0
 27 28  2  0  0  0  0
 27 29  1  0  0  0  0
  4 25  1  0  0  0  0
 30 31  1  0  0  0  0
 30 32  1  0  0  0  0
 30 33  1  0  0  0  0
 33 34  2  0  0  0  0
  8 30  1  0  0  0  0
  7 35  1  0  0  0  0
M  END
> <score_KierA1>
0.51762

$$$$
suggested molecule #602
 MOE2019            2D

 35 37  0  0  1  0  0  0  0  0999 V2000
    3.4992   -1.2833    0.0000 C   0  0  0  0  0  0  0  0  0  1  0  0
    4.9992   -1.2762    0.0000 C   0  0  0  0  0  0  0  0  0  2  0  0
    5.7430    0.0263    0.0000 C   0  0  0  0  0  0  0  0  0  3  0  0
    4.9869    1.3218    0.0000 C   0  0  0  0  0  0  0  0  0  4  0  0
    3.4870    1.3147    0.0000 C   0  0  0  0  0  0  0  0  0  5  0  0
    2.7431    0.0122    0.0000 C   0  0  0  0  0  0  0  0  0  6  0  0
    1.2431    0.0051    0.0000 C   0  0  0  0  0  0  0  0  0  7  0  0
    0.4870    1.3006    0.0000 C   0  0  0  0  0  0  0  0  0  8  0  0
    1.2309    2.6032    0.0000 C   0  0  0  0  0  0  0  0  0  9  0  0
    0.4748    3.8987    0.0000 O   0  0  0  0  0  0  0  0  0 10  0  0
    2.7309    2.6102    0.0000 O   0  0  0  0  0  0  0  0  0 11  0  0
    2.9041   -2.3253    0.0000 H   0  0  0  0  0  0  0  0  0  0  0  0
    7.2117   -0.2787    0.0000 O   0  0  0  0  0  0  0  0  0  0  0  0
    7.3755   -1.7697    0.0000 C   0  0  1  0  0  0  0  0  0  0  0  0
    6.0081   -2.3862    0.0000 C   0  0  0  0  0  0  0  0  0  0  0  0
    8.6781   -2.5136    0.0000 C   0  0  0  0  0  0  0  0  0  0  0  0
    9.9806   -3.2575    0.0000 C   0  0  0  0  0  0  0  0  0  0  0  0
    7.9342   -3.8161    0.0000 C   0  0  0  0  0  0  0  0  0  0  0  0
    9.4220   -1.2110    0.0000 O   0  0  0  0  0  0  0  0  0  0  0  0
    7.2430    0.0334    0.0000 C   0  0  0  0  0  0  0  0  0  0  0  0
    7.9869    1.3359    0.0000 C   0  0  0  0  0  0  0  0  0  0  0  0
    9.4869    1.3430    0.0000 C   0  0  0  0  0  0  0  0  0  0  0  0
    7.2308    2.6314    0.0000 C   0  0  0  0  0  0  0  0  0  0  0  0
    7.9747    3.9340    0.0000 O   0  0  0  0  0  0  0  0  0  0  0  0
    5.7308    2.6244    0.0000 C   0  0  0  0  0  0  0  0  0  0  0  0
    4.9747    3.9198    0.0000 O   0  0  0  0  0  0  0  0  0  0  0  0
    5.7186    5.2224    0.0000 C   0  0  0  0  0  0  0  0  0  0  0  0
    7.2186    5.2295    0.0000 O   0  0  0  0  0  0  0  0  0  0  0  0
    4.9625    6.5179    0.0000 C   0  0  0  0  0  0  0  0  0  0  0  0
   -1.0130    1.2936    0.0000 C   0  0  0  0  0  0  0  0  0  0  0  0
   -1.0200    2.7936    0.0000 C   0  0  0  0  0  0  0  0  0  0  0  0
   -1.0059   -0.2064    0.0000 C   0  0  0  0  0  0  0  0  0  0  0  0
   -2.5130    1.2865    0.0000 C   0  0  0  0  0  0  0  0  0  0  0  0
   -3.2569   -0.0160    0.0000 C   0  0  0  0  0  0  0  0  0  0  0  0
    0.6480   -1.0369    0.0000 H   0  0  0  0  0  0  0  0  0  0  0  0
  1  2  2  0  0  0  0
  1  6  1  0  0  0  0
  2  3  1  0  0  0  0
  3  4  2  0  0  0  0
  4  5  1  0  0  0  0
  5  6  2  0  0  0  0
  5 11  1  0  0  0  0
  6  7  1  0  0  0  0
  7  8  2  0  0  0  0
  8  9  1  0  0  0  0
  9 10  2  0  0  0  0
  9 11  1  0  0  0  0
  1 12  1  0  0  0  0
 13 14  1  0  0  0  0
 14 15  1  0  0  0  0
 14 16  1  6  0  0  0
 16 17  1  0  0  0  0
 16 18  1  0  0  0  0
 16 19  1  0  0  0  0
  2 15  1  0  0  0  0
  3 13  1  0  0  0  0
 20 21  1  0  0  0  0
 21 22  1  0  0  0  0
 21 23  1  0  0  0  0
 23 24  2  0  0  0  0
 23 25  1  0  0  0  0
 25 26  1  0  0  0  0
 26 27  1  0  0  0  0
 27 28  2  0  0  0  0
 27 29  1  0  0  0  0
  4 25  1  0  0  0  0
 30 31  1  0  0  0  0
 30 32  1  0  0  0  0
 30 33  1  0  0  0  0
 33 34  2  0  0  0  0
  8 30  1  0  0  0  0
  7 35  1  0  0  0  0
M  END
> <score_KierA2>
0.516782

$$$$
suggested molecule #603
 MOE2019            2D

 45 50  0  0  1  0  0  0  0  0999 V2000
    3.4992   -1.2833    0.0000 C   0  0  0  0  0  0  0  0  0  1  0  0
    4.9992   -1.2762    0.0000 C   0  0  0  0  0  0  0  0  0  2  0  0
    5.7430    0.0263    0.0000 C   0  0  0  0  0  0  0  0  0  3  0  0
    4.9869    1.3218    0.0000 C   0  0  0  0  0  0  0  0  0  4  0  0
    3.4870    1.3147    0.0000 C   0  0  0  0  0  0  0  0  0  5  0  0
    2.7431    0.0122    0.0000 C   0  0  0  0  0  0  0  0  0  6  0  0
    1.2431    0.0051    0.0000 C   0  0  0  0  0  0  0  0  0  7  0  0
    0.4870    1.3006    0.0000 C   0  0  0  0  0  0  0  0  0  8  0  0
    1.2309    2.6032    0.0000 C   0  0  0  0  0  0  0  0  0  9  0  0
    0.4748    3.8987    0.0000 O   0  0  0  0  0  0  0  0  0 10  0  0
    2.7309    2.6102    0.0000 O   0  0  0  0  0  0  0  0  0 11  0  0
    2.9041   -2.3253    0.0000 H   0  0  0  0  0  0  0  0  0  0  0  0
    7.2117   -0.2787    0.0000 O   0  0  0  0  0  0  0  0  0  0  0  0
    7.3755   -1.7697    0.0000 C   0  0  1  0  0  0  0  0  0  0  0  0
    6.0081   -2.3862    0.0000 C   0  0  0  0  0  0  0  0  0  0  0  0
    8.6781   -2.5136    0.0000 C   0  0  0  0  0  0  0  0  0  0  0  0
    7.9342   -3.8161    0.0000 C   0  0  0  0  0  0  0  0  0  0  0  0
    9.9806   -3.2575    0.0000 C   0  0  0  0  0  0  0  0  0  0  0  0
    9.4220   -1.2110    0.0000 O   0  0  0  0  0  0  0  0  0  0  0  0
    9.7348    1.7772    0.0000 C   0  0  0  0  0  0  0  0  0  0  0  0
   10.4910    0.4817    0.0000 C   0  0  0  0  0  0  0  0  0  0  0  0
    9.7471   -0.8209    0.0000 C   0  0  0  0  0  0  0  0  0  0  0  0
    8.2471   -0.8280    0.0000 C   0  0  0  0  0  0  0  0  0  0  0  0
    7.4910    0.4675    0.0000 C   0  0  0  0  0  0  0  0  0  0  0  0
    8.2349    1.7701    0.0000 C   0  0  0  0  0  0  0  0  0  0  0  0
    7.4788    3.0656    0.0000 C   0  0  1  0  0  0  0  0  0  0  0  0
    5.9788    3.0585    0.0000 C   0  0  0  0  0  0  0  0  0  0  0  0
    5.2227    4.3540    0.0000 C   0  0  0  0  0  0  0  0  0  0  0  0
    3.7227    4.3470    0.0000 O   0  0  0  0  0  0  0  0  0  0  0  0
    5.9666    5.6566    0.0000 C   0  0  0  0  0  0  0  0  0  0  0  0
    5.2105    6.9521    0.0000 C   0  0  0  0  0  0  0  0  0  0  0  0
    5.9543    8.2546    0.0000 C   0  0  0  0  0  0  0  0  0  0  0  0
    7.4543    8.2617    0.0000 C   0  0  0  0  0  0  0  0  0  0  0  0
    8.2104    6.9662    0.0000 C   0  0  0  0  0  0  0  0  0  0  0  0
    7.4665    5.6636    0.0000 C   0  0  0  0  0  0  0  0  0  0  0  0
    8.2226    4.3681    0.0000 O   0  0  0  0  0  0  0  0  0  0  0  0
    8.1982    9.5642    0.0000 O   0  0  0  0  0  0  0  0  0  0  0  0
    3.7105    6.9450    0.0000 O   0  0  0  0  0  0  0  0  0  0  0  0
   10.5032   -2.1164    0.0000 O   0  0  0  0  0  0  0  0  0  0  0  0
   -1.0130    1.2936    0.0000 C   0  0  0  0  0  0  0  0  0  0  0  0
   -1.0059   -0.2064    0.0000 C   0  0  0  0  0  0  0  0  0  0  0  0
   -1.0200    2.7936    0.0000 C   0  0  0  0  0  0  0  0  0  0  0  0
   -2.5130    1.2865    0.0000 C   0  0  0  0  0  0  0  0  0  0  0  0
   -3.2569   -0.0160    0.0000 C   0  0  0  0  0  0  0  0  0  0  0  0
    0.6480   -1.0369    0.0000 H   0  0  0  0  0  0  0  0  0  0  0  0
  1  2  2  0  0  0  0
  1  6  1  0  0  0  0
  2  3  1  0  0  0  0
  3  4  2  0  0  0  0
  4  5  1  0  0  0  0
  5  6  2  0  0  0  0
  5 11  1  0  0  0  0
  6  7  1  0  0  0  0
  7  8  2  0  0  0  0
  8  9  1  0  0  0  0
  9 10  2  0  0  0  0
  9 11  1  0  0  0  0
  1 12  1  0  0  0  0
 13 14  1  0  0  0  0
 14 15  1  0  0  0  0
 14 16  1  6  0  0  0
 16 17  1  0  0  0  0
 16 18  1  0  0  0  0
 16 19  1  0  0  0  0
  2 15  1  0  0  0  0
  3 13  1  0  0  0  0
 20 21  1  0  0  0  0
 20 25  2  0  0  0  0
 21 22  2  0  0  0  0
 22 23  1  0  0  0  0
 22 39  1  0  0  0  0
 23 24  2  0  0  0  0
 24 25  1  0  0  0  0
 26 25  1  1  0  0  0
 26 27  1  0  0  0  0
 26 36  1  0  0  0  0
 27 28  1  0  0  0  0
 28 29  2  0  0  0  0
 28 30  1  0  0  0  0
 30 31  1  0  0  0  0
 30 35  2  0  0  0  0
 31 32  2  0  0  0  0
 31 38  1  0  0  0  0
 32 33  1  0  0  0  0
 33 34  2  0  0  0  0
 33 37  1  0  0  0  0
 34 35  1  0  0  0  0
 35 36  1  0  0  0  0
  4 27  1  0  0  0  0
 40 41  1  0  0  0  0
 40 42  1  0  0  0  0
 40 43  1  0  0  0  0
 43 44  2  0  0  0  0
  8 40  1  0  0  0  0
  7 45  1  0  0  0  0
M  END
> <score_Kier1>
0.517729

$$$$
suggested molecule #604
 MOE2019            2D

 45 50  0  0  1  0  0  0  0  0999 V2000
    3.4992   -1.2833    0.0000 C   0  0  0  0  0  0  0  0  0  1  0  0
    4.9992   -1.2762    0.0000 C   0  0  0  0  0  0  0  0  0  2  0  0
    5.7430    0.0263    0.0000 C   0  0  0  0  0  0  0  0  0  3  0  0
    4.9869    1.3218    0.0000 C   0  0  0  0  0  0  0  0  0  4  0  0
    3.4870    1.3147    0.0000 C   0  0  0  0  0  0  0  0  0  5  0  0
    2.7431    0.0122    0.0000 C   0  0  0  0  0  0  0  0  0  6  0  0
    1.2431    0.0051    0.0000 C   0  0  0  0  0  0  0  0  0  7  0  0
    0.4870    1.3006    0.0000 C   0  0  0  0  0  0  0  0  0  8  0  0
    1.2309    2.6032    0.0000 C   0  0  0  0  0  0  0  0  0  9  0  0
    0.4748    3.8987    0.0000 O   0  0  0  0  0  0  0  0  0 10  0  0
    2.7309    2.6102    0.0000 O   0  0  0  0  0  0  0  0  0 11  0  0
    2.9041   -2.3253    0.0000 H   0  0  0  0  0  0  0  0  0  0  0  0
    7.2117   -0.2787    0.0000 O   0  0  0  0  0  0  0  0  0  0  0  0
    7.3755   -1.7697    0.0000 C   0  0  1  0  0  0  0  0  0  0  0  0
    6.0081   -2.3862    0.0000 C   0  0  0  0  0  0  0  0  0  0  0  0
    8.6781   -2.5136    0.0000 C   0  0  0  0  0  0  0  0  0  0  0  0
    7.9342   -3.8161    0.0000 C   0  0  0  0  0  0  0  0  0  0  0  0
    9.9806   -3.2575    0.0000 C   0  0  0  0  0  0  0  0  0  0  0  0
    9.4220   -1.2110    0.0000 O   0  0  0  0  0  0  0  0  0  0  0  0
    9.7348    1.7772    0.0000 C   0  0  0  0  0  0  0  0  0  0  0  0
   10.4910    0.4817    0.0000 C   0  0  0  0  0  0  0  0  0  0  0  0
    9.7471   -0.8209    0.0000 C   0  0  0  0  0  0  0  0  0  0  0  0
    8.2471   -0.8280    0.0000 C   0  0  0  0  0  0  0  0  0  0  0  0
    7.4910    0.4675    0.0000 C   0  0  0  0  0  0  0  0  0  0  0  0
    8.2349    1.7701    0.0000 C   0  0  0  0  0  0  0  0  0  0  0  0
    7.4788    3.0656    0.0000 C   0  0  1  0  0  0  0  0  0  0  0  0
    5.9788    3.0585    0.0000 C   0  0  0  0  0  0  0  0  0  0  0  0
    5.2227    4.3540    0.0000 C   0  0  0  0  0  0  0  0  0  0  0  0
    3.7227    4.3470    0.0000 O   0  0  0  0  0  0  0  0  0  0  0  0
    5.9666    5.6566    0.0000 C   0  0  0  0  0  0  0  0  0  0  0  0
    5.2105    6.9521    0.0000 C   0  0  0  0  0  0  0  0  0  0  0  0
    5.9543    8.2546    0.0000 C   0  0  0  0  0  0  0  0  0  0  0  0
    7.4543    8.2617    0.0000 C   0  0  0  0  0  0  0  0  0  0  0  0
    8.2104    6.9662    0.0000 C   0  0  0  0  0  0  0  0  0  0  0  0
    7.4665    5.6636    0.0000 C   0  0  0  0  0  0  0  0  0  0  0  0
    8.2226    4.3681    0.0000 O   0  0  0  0  0  0  0  0  0  0  0  0
    8.1982    9.5642    0.0000 O   0  0  0  0  0  0  0  0  0  0  0  0
    3.7105    6.9450    0.0000 O   0  0  0  0  0  0  0  0  0  0  0  0
   10.5032   -2.1164    0.0000 O   0  0  0  0  0  0  0  0  0  0  0  0
   -1.0130    1.2936    0.0000 C   0  0  0  0  0  0  0  0  0  0  0  0
   -1.0059   -0.2064    0.0000 C   0  0  0  0  0  0  0  0  0  0  0  0
   -1.0200    2.7936    0.0000 C   0  0  0  0  0  0  0  0  0  0  0  0
   -2.5130    1.2865    0.0000 C   0  0  0  0  0  0  0  0  0  0  0  0
   -3.2569   -0.0160    0.0000 C   0  0  0  0  0  0  0  0  0  0  0  0
    0.6480   -1.0369    0.0000 H   0  0  0  0  0  0  0  0  0  0  0  0
  1  2  2  0  0  0  0
  1  6  1  0  0  0  0
  2  3  1  0  0  0  0
  3  4  2  0  0  0  0
  4  5  1  0  0  0  0
  5  6  2  0  0  0  0
  5 11  1  0  0  0  0
  6  7  1  0  0  0  0
  7  8  2  0  0  0  0
  8  9  1  0  0  0  0
  9 10  2  0  0  0  0
  9 11  1  0  0  0  0
  1 12  1  0  0  0  0
 13 14  1  0  0  0  0
 14 15  1  0  0  0  0
 14 16  1  6  0  0  0
 16 17  1  0  0  0  0
 16 18  1  0  0  0  0
 16 19  1  0  0  0  0
  2 15  1  0  0  0  0
  3 13  1  0  0  0  0
 20 21  1  0  0  0  0
 20 25  2  0  0  0  0
 21 22  2  0  0  0  0
 22 23  1  0  0  0  0
 22 39  1  0  0  0  0
 23 24  2  0  0  0  0
 24 25  1  0  0  0  0
 26 25  1  1  0  0  0
 26 27  1  0  0  0  0
 26 36  1  0  0  0  0
 27 28  1  0  0  0  0
 28 29  2  0  0  0  0
 28 30  1  0  0  0  0
 30 31  1  0  0  0  0
 30 35  2  0  0  0  0
 31 32  2  0  0  0  0
 31 38  1  0  0  0  0
 32 33  1  0  0  0  0
 33 34  2  0  0  0  0
 33 37  1  0  0  0  0
 34 35  1  0  0  0  0
 35 36  1  0  0  0  0
  4 27  1  0  0  0  0
 40 41  1  0  0  0  0
 40 42  1  0  0  0  0
 40 43  1  0  0  0  0
 43 44  2  0  0  0  0
  8 40  1  0  0  0  0
  7 45  1  0  0  0  0
M  END
> <score_Kier2>
0.516544

$$$$
suggested molecule #605
 MOE2019            2D

 45 50  0  0  1  0  0  0  0  0999 V2000
    3.4992   -1.2833    0.0000 C   0  0  0  0  0  0  0  0  0  1  0  0
    4.9992   -1.2762    0.0000 C   0  0  0  0  0  0  0  0  0  2  0  0
    5.7430    0.0263    0.0000 C   0  0  0  0  0  0  0  0  0  3  0  0
    4.9869    1.3218    0.0000 C   0  0  0  0  0  0  0  0  0  4  0  0
    3.4870    1.3147    0.0000 C   0  0  0  0  0  0  0  0  0  5  0  0
    2.7431    0.0122    0.0000 C   0  0  0  0  0  0  0  0  0  6  0  0
    1.2431    0.0051    0.0000 C   0  0  0  0  0  0  0  0  0  7  0  0
    0.4870    1.3006    0.0000 C   0  0  0  0  0  0  0  0  0  8  0  0
    1.2309    2.6032    0.0000 C   0  0  0  0  0  0  0  0  0  9  0  0
    0.4748    3.8987    0.0000 O   0  0  0  0  0  0  0  0  0 10  0  0
    2.7309    2.6102    0.0000 O   0  0  0  0  0  0  0  0  0 11  0  0
    2.9041   -2.3253    0.0000 H   0  0  0  0  0  0  0  0  0  0  0  0
    7.2117   -0.2787    0.0000 O   0  0  0  0  0  0  0  0  0  0  0  0
    7.3755   -1.7697    0.0000 C   0  0  1  0  0  0  0  0  0  0  0  0
    6.0081   -2.3862    0.0000 C   0  0  0  0  0  0  0  0  0  0  0  0
    8.6781   -2.5136    0.0000 C   0  0  0  0  0  0  0  0  0  0  0  0
    7.9342   -3.8161    0.0000 C   0  0  0  0  0  0  0  0  0  0  0  0
    9.9806   -3.2575    0.0000 C   0  0  0  0  0  0  0  0  0  0  0  0
    9.4220   -1.2110    0.0000 O   0  0  0  0  0  0  0  0  0  0  0  0
    9.7348    1.7772    0.0000 C   0  0  0  0  0  0  0  0  0  0  0  0
   10.4910    0.4817    0.0000 C   0  0  0  0  0  0  0  0  0  0  0  0
    9.7471   -0.8209    0.0000 C   0  0  0  0  0  0  0  0  0  0  0  0
    8.2471   -0.8280    0.0000 C   0  0  0  0  0  0  0  0  0  0  0  0
    7.4910    0.4675    0.0000 C   0  0  0  0  0  0  0  0  0  0  0  0
    8.2349    1.7701    0.0000 C   0  0  0  0  0  0  0  0  0  0  0  0
    7.4788    3.0656    0.0000 C   0  0  1  0  0  0  0  0  0  0  0  0
    5.9788    3.0585    0.0000 C   0  0  0  0  0  0  0  0  0  0  0  0
    5.2227    4.3540    0.0000 C   0  0  0  0  0  0  0  0  0  0  0  0
    3.7227    4.3470    0.0000 O   0  0  0  0  0  0  0  0  0  0  0  0
    5.9666    5.6566    0.0000 C   0  0  0  0  0  0  0  0  0  0  0  0
    5.2105    6.9521    0.0000 C   0  0  0  0  0  0  0  0  0  0  0  0
    5.9543    8.2546    0.0000 C   0  0  0  0  0  0  0  0  0  0  0  0
    7.4543    8.2617    0.0000 C   0  0  0  0  0  0  0  0  0  0  0  0
    8.2104    6.9662    0.0000 C   0  0  0  0  0  0  0  0  0  0  0  0
    7.4665    5.6636    0.0000 C   0  0  0  0  0  0  0  0  0  0  0  0
    8.2226    4.3681    0.0000 O   0  0  0  0  0  0  0  0  0  0  0  0
    8.1982    9.5642    0.0000 O   0  0  0  0  0  0  0  0  0  0  0  0
    3.7105    6.9450    0.0000 O   0  0  0  0  0  0  0  0  0  0  0  0
   10.5032   -2.1164    0.0000 O   0  0  0  0  0  0  0  0  0  0  0  0
   -1.0130    1.2936    0.0000 C   0  0  0  0  0  0  0  0  0  0  0  0
   -1.0059   -0.2064    0.0000 C   0  0  0  0  0  0  0  0  0  0  0  0
   -1.0200    2.7936    0.0000 C   0  0  0  0  0  0  0  0  0  0  0  0
   -2.5130    1.2865    0.0000 C   0  0  0  0  0  0  0  0  0  0  0  0
   -3.2569   -0.0160    0.0000 C   0  0  0  0  0  0  0  0  0  0  0  0
    0.6480   -1.0369    0.0000 H   0  0  0  0  0  0  0  0  0  0  0  0
  1  2  2  0  0  0  0
  1  6  1  0  0  0  0
  2  3  1  0  0  0  0
  3  4  2  0  0  0  0
  4  5  1  0  0  0  0
  5  6  2  0  0  0  0
  5 11  1  0  0  0  0
  6  7  1  0  0  0  0
  7  8  2  0  0  0  0
  8  9  1  0  0  0  0
  9 10  2  0  0  0  0
  9 11  1  0  0  0  0
  1 12  1  0  0  0  0
 13 14  1  0  0  0  0
 14 15  1  0  0  0  0
 14 16  1  6  0  0  0
 16 17  1  0  0  0  0
 16 18  1  0  0  0  0
 16 19  1  0  0  0  0
  2 15  1  0  0  0  0
  3 13  1  0  0  0  0
 20 21  1  0  0  0  0
 20 25  2  0  0  0  0
 21 22  2  0  0  0  0
 22 23  1  0  0  0  0
 22 39  1  0  0  0  0
 23 24  2  0  0  0  0
 24 25  1  0  0  0  0
 26 25  1  1  0  0  0
 26 27  1  0  0  0  0
 26 36  1  0  0  0  0
 27 28  1  0  0  0  0
 28 29  2  0  0  0  0
 28 30  1  0  0  0  0
 30 31  1  0  0  0  0
 30 35  2  0  0  0  0
 31 32  2  0  0  0  0
 31 38  1  0  0  0  0
 32 33  1  0  0  0  0
 33 34  2  0  0  0  0
 33 37  1  0  0  0  0
 34 35  1  0  0  0  0
 35 36  1  0  0  0  0
  4 27  1  0  0  0  0
 40 41  1  0  0  0  0
 40 42  1  0  0  0  0
 40 43  1  0  0  0  0
 43 44  2  0  0  0  0
  8 40  1  0  0  0  0
  7 45  1  0  0  0  0
M  END
> <score_KierA2>
0.516745

$$$$
suggested molecule #606
 MOE2019            2D

 42 44  0  0  1  0  0  0  0  0999 V2000
    3.4992   -1.2833    0.0000 C   0  0  0  0  0  0  0  0  0  1  0  0
    4.9992   -1.2762    0.0000 C   0  0  0  0  0  0  0  0  0  2  0  0
    5.7430    0.0263    0.0000 C   0  0  0  0  0  0  0  0  0  3  0  0
    4.9869    1.3218    0.0000 C   0  0  0  0  0  0  0  0  0  4  0  0
    3.4870    1.3147    0.0000 C   0  0  0  0  0  0  0  0  0  5  0  0
    2.7431    0.0122    0.0000 C   0  0  0  0  0  0  0  0  0  6  0  0
    1.2431    0.0051    0.0000 C   0  0  0  0  0  0  0  0  0  7  0  0
    0.4870    1.3006    0.0000 C   0  0  0  0  0  0  0  0  0  8  0  0
    1.2309    2.6032    0.0000 C   0  0  0  0  0  0  0  0  0  9  0  0
    0.4748    3.8987    0.0000 O   0  0  0  0  0  0  0  0  0 10  0  0
    2.7309    2.6102    0.0000 O   0  0  0  0  0  0  0  0  0 11  0  0
    2.9041   -2.3253    0.0000 H   0  0  0  0  0  0  0  0  0  0  0  0
    7.2117   -0.2787    0.0000 O   0  0  0  0  0  0  0  0  0  0  0  0
    7.3755   -1.7697    0.0000 C   0  0  1  0  0  0  0  0  0  0  0  0
    6.0081   -2.3862    0.0000 C   0  0  0  0  0  0  0  0  0  0  0  0
    8.6781   -2.5136    0.0000 C   0  0  0  0  0  0  0  0  0  0  0  0
    9.9806   -3.2575    0.0000 C   0  0  0  0  0  0  0  0  0  0  0  0
    7.9342   -3.8161    0.0000 C   0  0  0  0  0  0  0  0  0  0  0  0
    9.4220   -1.2110    0.0000 O   0  0  0  0  0  0  0  0  0  0  0  0
    7.2064    7.8275    0.0000 C   0  0  0  0  0  0  0  0  0  0  0  0
    5.7064    7.8204    0.0000 C   0  0  0  0  0  0  0  0  0  0  0  0
    4.9625    6.5179    0.0000 C   0  0  0  0  0  0  0  0  0  0  0  0
    3.4625    6.5108    0.0000 C   0  0  0  0  0  0  0  0  0  0  0  0
    5.7186    5.2224    0.0000 C   0  0  0  0  0  0  0  0  0  0  0  0
    7.2186    5.2295    0.0000 O   0  0  0  0  0  0  0  0  0  0  0  0
    4.9747    3.9198    0.0000 O   0  0  0  0  0  0  0  0  0  0  0  0
    5.7308    2.6244    0.0000 C   0  0  0  0  0  0  0  0  0  0  0  0
    7.2308    2.6314    0.0000 C   0  0  0  0  0  0  0  0  0  0  0  0
    7.9869    1.3359    0.0000 C   0  0  0  0  0  0  0  0  0  0  0  0
    6.6914    0.5798    0.0000 O   0  0  0  0  0  0  0  0  0  0  0  0
    9.2824    2.0920    0.0000 C   0  0  0  0  0  0  0  0  0  0  0  0
    8.7430    0.0404    0.0000 C   0  0  0  0  0  0  0  0  0  0  0  0
    7.9747    3.9340    0.0000 O   0  0  0  0  0  0  0  0  0  0  0  0
    9.4747    3.9410    0.0000 C   0  0  0  0  0  0  0  0  0  0  0  0
   10.2308    2.6455    0.0000 O   0  0  0  0  0  0  0  0  0  0  0  0
   10.2186    5.2436    0.0000 C   0  0  0  0  0  0  0  0  0  0  0  0
   -1.0130    1.2936    0.0000 C   0  0  0  0  0  0  0  0  0  0  0  0
   -1.0200    2.7936    0.0000 C   0  0  0  0  0  0  0  0  0  0  0  0
   -1.0059   -0.2064    0.0000 C   0  0  0  0  0  0  0  0  0  0  0  0
   -2.5130    1.2865    0.0000 C   0  0  0  0  0  0  0  0  0  0  0  0
   -3.2569   -0.0160    0.0000 C   0  0  0  0  0  0  0  0  0  0  0  0
    0.6480   -1.0369    0.0000 H   0  0  0  0  0  0  0  0  0  0  0  0
  1  2  2  0  0  0  0
  1  6  1  0  0  0  0
  2  3  1  0  0  0  0
  3  4  2  0  0  0  0
  4  5  1  0  0  0  0
  5  6  2  0  0  0  0
  5 11  1  0  0  0  0
  6  7  1  0  0  0  0
  7  8  2  0  0  0  0
  8  9  1  0  0  0  0
  9 10  2  0  0  0  0
  9 11  1  0  0  0  0
  1 12  1  0  0  0  0
 13 14  1  0  0  0  0
 14 15  1  0  0  0  0
 14 16  1  6  0  0  0
 16 17  1  0  0  0  0
 16 18  1  0  0  0  0
 16 19  1  0  0  0  0
  2 15  1  0  0  0  0
  3 13  1  0  0  0  0
 20 21  1  0  0  0  0
 21 22  2  0  0  0  0
 22 23  1  0  0  0  0
 22 24  1  0  0  0  0
 24 25  2  0  0  0  0
 24 26  1  0  0  0  0
 26 27  1  0  0  0  0
 27 28  1  0  0  0  0
 28 29  1  0  0  0  0
 28 33  1  0  0  0  0
 29 30  1  0  0  0  0
 29 31  1  0  0  0  0
 29 32  1  0  0  0  0
 33 34  1  0  0  0  0
 34 35  2  0  0  0  0
 34 36  1  0  0  0  0
  4 27  1  0  0  0  0
 37 38  1  0  0  0  0
 37 39  1  0  0  0  0
 37 40  1  0  0  0  0
 40 41  2  0  0  0  0
  8 37  1  0  0  0  0
  7 42  1  0  0  0  0
M  END
> <score_Kier1>
0.517766

$$$$
suggested molecule #607
 MOE2019            2D

 42 44  0  0  1  0  0  0  0  0999 V2000
    3.4992   -1.2833    0.0000 C   0  0  0  0  0  0  0  0  0  1  0  0
    4.9992   -1.2762    0.0000 C   0  0  0  0  0  0  0  0  0  2  0  0
    5.7430    0.0263    0.0000 C   0  0  0  0  0  0  0  0  0  3  0  0
    4.9869    1.3218    0.0000 C   0  0  0  0  0  0  0  0  0  4  0  0
    3.4870    1.3147    0.0000 C   0  0  0  0  0  0  0  0  0  5  0  0
    2.7431    0.0122    0.0000 C   0  0  0  0  0  0  0  0  0  6  0  0
    1.2431    0.0051    0.0000 C   0  0  0  0  0  0  0  0  0  7  0  0
    0.4870    1.3006    0.0000 C   0  0  0  0  0  0  0  0  0  8  0  0
    1.2309    2.6032    0.0000 C   0  0  0  0  0  0  0  0  0  9  0  0
    0.4748    3.8987    0.0000 O   0  0  0  0  0  0  0  0  0 10  0  0
    2.7309    2.6102    0.0000 O   0  0  0  0  0  0  0  0  0 11  0  0
    2.9041   -2.3253    0.0000 H   0  0  0  0  0  0  0  0  0  0  0  0
    7.2117   -0.2787    0.0000 O   0  0  0  0  0  0  0  0  0  0  0  0
    7.3755   -1.7697    0.0000 C   0  0  1  0  0  0  0  0  0  0  0  0
    6.0081   -2.3862    0.0000 C   0  0  0  0  0  0  0  0  0  0  0  0
    8.6781   -2.5136    0.0000 C   0  0  0  0  0  0  0  0  0  0  0  0
    9.9806   -3.2575    0.0000 C   0  0  0  0  0  0  0  0  0  0  0  0
    7.9342   -3.8161    0.0000 C   0  0  0  0  0  0  0  0  0  0  0  0
    9.4220   -1.2110    0.0000 O   0  0  0  0  0  0  0  0  0  0  0  0
    7.2064    7.8275    0.0000 C   0  0  0  0  0  0  0  0  0  0  0  0
    5.7064    7.8204    0.0000 C   0  0  0  0  0  0  0  0  0  0  0  0
    4.9625    6.5179    0.0000 C   0  0  0  0  0  0  0  0  0  0  0  0
    3.4625    6.5108    0.0000 C   0  0  0  0  0  0  0  0  0  0  0  0
    5.7186    5.2224    0.0000 C   0  0  0  0  0  0  0  0  0  0  0  0
    7.2186    5.2295    0.0000 O   0  0  0  0  0  0  0  0  0  0  0  0
    4.9747    3.9198    0.0000 O   0  0  0  0  0  0  0  0  0  0  0  0
    5.7308    2.6244    0.0000 C   0  0  0  0  0  0  0  0  0  0  0  0
    7.2308    2.6314    0.0000 C   0  0  0  0  0  0  0  0  0  0  0  0
    7.9869    1.3359    0.0000 C   0  0  0  0  0  0  0  0  0  0  0  0
    6.6914    0.5798    0.0000 O   0  0  0  0  0  0  0  0  0  0  0  0
    9.2824    2.0920    0.0000 C   0  0  0  0  0  0  0  0  0  0  0  0
    8.7430    0.0404    0.0000 C   0  0  0  0  0  0  0  0  0  0  0  0
    7.9747    3.9340    0.0000 O   0  0  0  0  0  0  0  0  0  0  0  0
    9.4747    3.9410    0.0000 C   0  0  0  0  0  0  0  0  0  0  0  0
   10.2308    2.6455    0.0000 O   0  0  0  0  0  0  0  0  0  0  0  0
   10.2186    5.2436    0.0000 C   0  0  0  0  0  0  0  0  0  0  0  0
   -1.0130    1.2936    0.0000 C   0  0  0  0  0  0  0  0  0  0  0  0
   -1.0200    2.7936    0.0000 C   0  0  0  0  0  0  0  0  0  0  0  0
   -1.0059   -0.2064    0.0000 C   0  0  0  0  0  0  0  0  0  0  0  0
   -2.5130    1.2865    0.0000 C   0  0  0  0  0  0  0  0  0  0  0  0
   -3.2569   -0.0160    0.0000 C   0  0  0  0  0  0  0  0  0  0  0  0
    0.6480   -1.0369    0.0000 H   0  0  0  0  0  0  0  0  0  0  0  0
  1  2  2  0  0  0  0
  1  6  1  0  0  0  0
  2  3  1  0  0  0  0
  3  4  2  0  0  0  0
  4  5  1  0  0  0  0
  5  6  2  0  0  0  0
  5 11  1  0  0  0  0
  6  7  1  0  0  0  0
  7  8  2  0  0  0  0
  8  9  1  0  0  0  0
  9 10  2  0  0  0  0
  9 11  1  0  0  0  0
  1 12  1  0  0  0  0
 13 14  1  0  0  0  0
 14 15  1  0  0  0  0
 14 16  1  6  0  0  0
 16 17  1  0  0  0  0
 16 18  1  0  0  0  0
 16 19  1  0  0  0  0
  2 15  1  0  0  0  0
  3 13  1  0  0  0  0
 20 21  1  0  0  0  0
 21 22  2  0  0  0  0
 22 23  1  0  0  0  0
 22 24  1  0  0  0  0
 24 25  2  0  0  0  0
 24 26  1  0  0  0  0
 26 27  1  0  0  0  0
 27 28  1  0  0  0  0
 28 29  1  0  0  0  0
 28 33  1  0  0  0  0
 29 30  1  0  0  0  0
 29 31  1  0  0  0  0
 29 32  1  0  0  0  0
 33 34  1  0  0  0  0
 34 35  2  0  0  0  0
 34 36  1  0  0  0  0
  4 27  1  0  0  0  0
 37 38  1  0  0  0  0
 37 39  1  0  0  0  0
 37 40  1  0  0  0  0
 40 41  2  0  0  0  0
  8 37  1  0  0  0  0
  7 42  1  0  0  0  0
M  END
> <score_Kier2>
0.516578

$$$$
suggested molecule #608
 MOE2019            2D

 42 44  0  0  1  0  0  0  0  0999 V2000
    3.4992   -1.2833    0.0000 C   0  0  0  0  0  0  0  0  0  1  0  0
    4.9992   -1.2762    0.0000 C   0  0  0  0  0  0  0  0  0  2  0  0
    5.7430    0.0263    0.0000 C   0  0  0  0  0  0  0  0  0  3  0  0
    4.9869    1.3218    0.0000 C   0  0  0  0  0  0  0  0  0  4  0  0
    3.4870    1.3147    0.0000 C   0  0  0  0  0  0  0  0  0  5  0  0
    2.7431    0.0122    0.0000 C   0  0  0  0  0  0  0  0  0  6  0  0
    1.2431    0.0051    0.0000 C   0  0  0  0  0  0  0  0  0  7  0  0
    0.4870    1.3006    0.0000 C   0  0  0  0  0  0  0  0  0  8  0  0
    1.2309    2.6032    0.0000 C   0  0  0  0  0  0  0  0  0  9  0  0
    0.4748    3.8987    0.0000 O   0  0  0  0  0  0  0  0  0 10  0  0
    2.7309    2.6102    0.0000 O   0  0  0  0  0  0  0  0  0 11  0  0
    2.9041   -2.3253    0.0000 H   0  0  0  0  0  0  0  0  0  0  0  0
    7.2117   -0.2787    0.0000 O   0  0  0  0  0  0  0  0  0  0  0  0
    7.3755   -1.7697    0.0000 C   0  0  1  0  0  0  0  0  0  0  0  0
    6.0081   -2.3862    0.0000 C   0  0  0  0  0  0  0  0  0  0  0  0
    8.6781   -2.5136    0.0000 C   0  0  0  0  0  0  0  0  0  0  0  0
    9.9806   -3.2575    0.0000 C   0  0  0  0  0  0  0  0  0  0  0  0
    7.9342   -3.8161    0.0000 C   0  0  0  0  0  0  0  0  0  0  0  0
    9.4220   -1.2110    0.0000 O   0  0  0  0  0  0  0  0  0  0  0  0
    7.2064    7.8275    0.0000 C   0  0  0  0  0  0  0  0  0  0  0  0
    5.7064    7.8204    0.0000 C   0  0  0  0  0  0  0  0  0  0  0  0
    4.9625    6.5179    0.0000 C   0  0  0  0  0  0  0  0  0  0  0  0
    3.4625    6.5108    0.0000 C   0  0  0  0  0  0  0  0  0  0  0  0
    5.7186    5.2224    0.0000 C   0  0  0  0  0  0  0  0  0  0  0  0
    7.2186    5.2295    0.0000 O   0  0  0  0  0  0  0  0  0  0  0  0
    4.9747    3.9198    0.0000 O   0  0  0  0  0  0  0  0  0  0  0  0
    5.7308    2.6244    0.0000 C   0  0  0  0  0  0  0  0  0  0  0  0
    7.2308    2.6314    0.0000 C   0  0  0  0  0  0  0  0  0  0  0  0
    7.9869    1.3359    0.0000 C   0  0  0  0  0  0  0  0  0  0  0  0
    6.6914    0.5798    0.0000 O   0  0  0  0  0  0  0  0  0  0  0  0
    9.2824    2.0920    0.0000 C   0  0  0  0  0  0  0  0  0  0  0  0
    8.7430    0.0404    0.0000 C   0  0  0  0  0  0  0  0  0  0  0  0
    7.9747    3.9340    0.0000 O   0  0  0  0  0  0  0  0  0  0  0  0
    9.4747    3.9410    0.0000 C   0  0  0  0  0  0  0  0  0  0  0  0
   10.2308    2.6455    0.0000 O   0  0  0  0  0  0  0  0  0  0  0  0
   10.2186    5.2436    0.0000 C   0  0  0  0  0  0  0  0  0  0  0  0
   -1.0130    1.2936    0.0000 C   0  0  0  0  0  0  0  0  0  0  0  0
   -1.0200    2.7936    0.0000 C   0  0  0  0  0  0  0  0  0  0  0  0
   -1.0059   -0.2064    0.0000 C   0  0  0  0  0  0  0  0  0  0  0  0
   -2.5130    1.2865    0.0000 C   0  0  0  0  0  0  0  0  0  0  0  0
   -3.2569   -0.0160    0.0000 C   0  0  0  0  0  0  0  0  0  0  0  0
    0.6480   -1.0369    0.0000 H   0  0  0  0  0  0  0  0  0  0  0  0
  1  2  2  0  0  0  0
  1  6  1  0  0  0  0
  2  3  1  0  0  0  0
  3  4  2  0  0  0  0
  4  5  1  0  0  0  0
  5  6  2  0  0  0  0
  5 11  1  0  0  0  0
  6  7  1  0  0  0  0
  7  8  2  0  0  0  0
  8  9  1  0  0  0  0
  9 10  2  0  0  0  0
  9 11  1  0  0  0  0
  1 12  1  0  0  0  0
 13 14  1  0  0  0  0
 14 15  1  0  0  0  0
 14 16  1  6  0  0  0
 16 17  1  0  0  0  0
 16 18  1  0  0  0  0
 16 19  1  0  0  0  0
  2 15  1  0  0  0  0
  3 13  1  0  0  0  0
 20 21  1  0  0  0  0
 21 22  2  0  0  0  0
 22 23  1  0  0  0  0
 22 24  1  0  0  0  0
 24 25  2  0  0  0  0
 24 26  1  0  0  0  0
 26 27  1  0  0  0  0
 27 28  1  0  0  0  0
 28 29  1  0  0  0  0
 28 33  1  0  0  0  0
 29 30  1  0  0  0  0
 29 31  1  0  0  0  0
 29 32  1  0  0  0  0
 33 34  1  0  0  0  0
 34 35  2  0  0  0  0
 34 36  1  0  0  0  0
  4 27  1  0  0  0  0
 37 38  1  0  0  0  0
 37 39  1  0  0  0  0
 37 40  1  0  0  0  0
 40 41  2  0  0  0  0
  8 37  1  0  0  0  0
  7 42  1  0  0  0  0
M  END
> <score_KierA1>
0.517597

$$$$
suggested molecule #609
 MOE2019            2D

 42 44  0  0  1  0  0  0  0  0999 V2000
    3.4992   -1.2833    0.0000 C   0  0  0  0  0  0  0  0  0  1  0  0
    4.9992   -1.2762    0.0000 C   0  0  0  0  0  0  0  0  0  2  0  0
    5.7430    0.0263    0.0000 C   0  0  0  0  0  0  0  0  0  3  0  0
    4.9869    1.3218    0.0000 C   0  0  0  0  0  0  0  0  0  4  0  0
    3.4870    1.3147    0.0000 C   0  0  0  0  0  0  0  0  0  5  0  0
    2.7431    0.0122    0.0000 C   0  0  0  0  0  0  0  0  0  6  0  0
    1.2431    0.0051    0.0000 C   0  0  0  0  0  0  0  0  0  7  0  0
    0.4870    1.3006    0.0000 C   0  0  0  0  0  0  0  0  0  8  0  0
    1.2309    2.6032    0.0000 C   0  0  0  0  0  0  0  0  0  9  0  0
    0.4748    3.8987    0.0000 O   0  0  0  0  0  0  0  0  0 10  0  0
    2.7309    2.6102    0.0000 O   0  0  0  0  0  0  0  0  0 11  0  0
    2.9041   -2.3253    0.0000 H   0  0  0  0  0  0  0  0  0  0  0  0
    7.2117   -0.2787    0.0000 O   0  0  0  0  0  0  0  0  0  0  0  0
    7.3755   -1.7697    0.0000 C   0  0  1  0  0  0  0  0  0  0  0  0
    6.0081   -2.3862    0.0000 C   0  0  0  0  0  0  0  0  0  0  0  0
    8.6781   -2.5136    0.0000 C   0  0  0  0  0  0  0  0  0  0  0  0
    9.9806   -3.2575    0.0000 C   0  0  0  0  0  0  0  0  0  0  0  0
    7.9342   -3.8161    0.0000 C   0  0  0  0  0  0  0  0  0  0  0  0
    9.4220   -1.2110    0.0000 O   0  0  0  0  0  0  0  0  0  0  0  0
    7.2064    7.8275    0.0000 C   0  0  0  0  0  0  0  0  0  0  0  0
    5.7064    7.8204    0.0000 C   0  0  0  0  0  0  0  0  0  0  0  0
    4.9625    6.5179    0.0000 C   0  0  0  0  0  0  0  0  0  0  0  0
    3.4625    6.5108    0.0000 C   0  0  0  0  0  0  0  0  0  0  0  0
    5.7186    5.2224    0.0000 C   0  0  0  0  0  0  0  0  0  0  0  0
    7.2186    5.2295    0.0000 O   0  0  0  0  0  0  0  0  0  0  0  0
    4.9747    3.9198    0.0000 O   0  0  0  0  0  0  0  0  0  0  0  0
    5.7308    2.6244    0.0000 C   0  0  0  0  0  0  0  0  0  0  0  0
    7.2308    2.6314    0.0000 C   0  0  0  0  0  0  0  0  0  0  0  0
    7.9869    1.3359    0.0000 C   0  0  0  0  0  0  0  0  0  0  0  0
    6.6914    0.5798    0.0000 O   0  0  0  0  0  0  0  0  0  0  0  0
    9.2824    2.0920    0.0000 C   0  0  0  0  0  0  0  0  0  0  0  0
    8.7430    0.0404    0.0000 C   0  0  0  0  0  0  0  0  0  0  0  0
    7.9747    3.9340    0.0000 O   0  0  0  0  0  0  0  0  0  0  0  0
    9.4747    3.9410    0.0000 C   0  0  0  0  0  0  0  0  0  0  0  0
   10.2308    2.6455    0.0000 O   0  0  0  0  0  0  0  0  0  0  0  0
   10.2186    5.2436    0.0000 C   0  0  0  0  0  0  0  0  0  0  0  0
   -1.0130    1.2936    0.0000 C   0  0  0  0  0  0  0  0  0  0  0  0
   -1.0200    2.7936    0.0000 C   0  0  0  0  0  0  0  0  0  0  0  0
   -1.0059   -0.2064    0.0000 C   0  0  0  0  0  0  0  0  0  0  0  0
   -2.5130    1.2865    0.0000 C   0  0  0  0  0  0  0  0  0  0  0  0
   -3.2569   -0.0160    0.0000 C   0  0  0  0  0  0  0  0  0  0  0  0
    0.6480   -1.0369    0.0000 H   0  0  0  0  0  0  0  0  0  0  0  0
  1  2  2  0  0  0  0
  1  6  1  0  0  0  0
  2  3  1  0  0  0  0
  3  4  2  0  0  0  0
  4  5  1  0  0  0  0
  5  6  2  0  0  0  0
  5 11  1  0  0  0  0
  6  7  1  0  0  0  0
  7  8  2  0  0  0  0
  8  9  1  0  0  0  0
  9 10  2  0  0  0  0
  9 11  1  0  0  0  0
  1 12  1  0  0  0  0
 13 14  1  0  0  0  0
 14 15  1  0  0  0  0
 14 16  1  6  0  0  0
 16 17  1  0  0  0  0
 16 18  1  0  0  0  0
 16 19  1  0  0  0  0
  2 15  1  0  0  0  0
  3 13  1  0  0  0  0
 20 21  1  0  0  0  0
 21 22  2  0  0  0  0
 22 23  1  0  0  0  0
 22 24  1  0  0  0  0
 24 25  2  0  0  0  0
 24 26  1  0  0  0  0
 26 27  1  0  0  0  0
 27 28  1  0  0  0  0
 28 29  1  0  0  0  0
 28 33  1  0  0  0  0
 29 30  1  0  0  0  0
 29 31  1  0  0  0  0
 29 32  1  0  0  0  0
 33 34  1  0  0  0  0
 34 35  2  0  0  0  0
 34 36  1  0  0  0  0
  4 27  1  0  0  0  0
 37 38  1  0  0  0  0
 37 39  1  0  0  0  0
 37 40  1  0  0  0  0
 40 41  2  0  0  0  0
  8 37  1  0  0  0  0
  7 42  1  0  0  0  0
M  END
> <score_KierA2>
0.516771

$$$$
suggested molecule #610
 MOE2019            2D

 42 44  0  0  1  0  0  0  0  0999 V2000
    3.4992   -1.2833    0.0000 C   0  0  0  0  0  0  0  0  0  1  0  0
    4.9992   -1.2762    0.0000 C   0  0  0  0  0  0  0  0  0  2  0  0
    5.7430    0.0263    0.0000 C   0  0  0  0  0  0  0  0  0  3  0  0
    4.9869    1.3218    0.0000 C   0  0  0  0  0  0  0  0  0  4  0  0
    3.4870    1.3147    0.0000 C   0  0  0  0  0  0  0  0  0  5  0  0
    2.7431    0.0122    0.0000 C   0  0  0  0  0  0  0  0  0  6  0  0
    1.2431    0.0051    0.0000 C   0  0  0  0  0  0  0  0  0  7  0  0
    0.4870    1.3006    0.0000 C   0  0  0  0  0  0  0  0  0  8  0  0
    1.2309    2.6032    0.0000 C   0  0  0  0  0  0  0  0  0  9  0  0
    0.4748    3.8987    0.0000 O   0  0  0  0  0  0  0  0  0 10  0  0
    2.7309    2.6102    0.0000 O   0  0  0  0  0  0  0  0  0 11  0  0
    2.9041   -2.3253    0.0000 H   0  0  0  0  0  0  0  0  0  0  0  0
    7.2117   -0.2787    0.0000 O   0  0  0  0  0  0  0  0  0  0  0  0
    7.3755   -1.7697    0.0000 C   0  0  1  0  0  0  0  0  0  0  0  0
    6.0081   -2.3862    0.0000 C   0  0  0  0  0  0  0  0  0  0  0  0
    8.6781   -2.5136    0.0000 C   0  0  0  0  0  0  0  0  0  0  0  0
    7.9342   -3.8161    0.0000 C   0  0  0  0  0  0  0  0  0  0  0  0
    9.4220   -1.2110    0.0000 C   0  0  0  0  0  0  0  0  0  0  0  0
    9.9806   -3.2575    0.0000 O   0  0  0  0  0  0  0  0  0  0  0  0
   12.4869    1.3571    0.0000 C   0  0  0  0  0  0  0  0  0  0  0  0
   11.7308    2.6526    0.0000 C   0  0  0  0  0  0  0  0  0  0  0  0
   10.2308    2.6455    0.0000 C   0  0  0  0  0  0  0  0  0  0  0  0
    9.4747    3.9410    0.0000 C   0  0  0  0  0  0  0  0  0  0  0  0
   10.2186    5.2436    0.0000 O   0  0  0  0  0  0  0  0  0  0  0  0
    7.9747    3.9340    0.0000 O   0  0  0  0  0  0  0  0  0  0  0  0
    7.2308    2.6314    0.0000 C   0  0  2  0  0  0  0  0  0  0  0  0
    5.7308    2.6244    0.0000 C   0  0  0  0  0  0  0  0  0  0  0  0
    6.6914    0.5798    0.0000 O   0  0  0  0  0  0  0  0  0  0  0  0
    7.9869    1.3359    0.0000 C   0  0  0  0  0  0  0  0  0  0  0  0
    8.7430    0.0404    0.0000 C   0  0  0  0  0  0  0  0  0  0  0  0
    9.2824    2.0920    0.0000 C   0  0  0  0  0  0  0  0  0  0  0  0
    4.9747    3.9198    0.0000 O   0  0  0  0  0  0  0  0  0  0  0  0
    5.7186    5.2224    0.0000 C   0  0  0  0  0  0  0  0  0  0  0  0
    4.9625    6.5179    0.0000 O   0  0  0  0  0  0  0  0  0  0  0  0
    7.2186    5.2295    0.0000 C   0  0  0  0  0  0  0  0  0  0  0  0
   12.4746    3.9551    0.0000 C   0  0  0  0  0  0  0  0  0  0  0  0
   -1.0130    1.2936    0.0000 C   0  0  0  0  0  0  0  0  0  0  0  0
   -1.0059   -0.2064    0.0000 C   0  0  0  0  0  0  0  0  0  0  0  0
   -1.0200    2.7936    0.0000 C   0  0  0  0  0  0  0  0  0  0  0  0
   -2.5130    1.2865    0.0000 C   0  0  0  0  0  0  0  0  0  0  0  0
   -3.2569   -0.0160    0.0000 C   0  0  0  0  0  0  0  0  0  0  0  0
    0.6480   -1.0369    0.0000 H   0  0  0  0  0  0  0  0  0  0  0  0
  1  2  2  0  0  0  0
  1  6  1  0  0  0  0
  2  3  1  0  0  0  0
  3  4  2  0  0  0  0
  4  5  1  0  0  0  0
  5  6  2  0  0  0  0
  5 11  1  0  0  0  0
  6  7  1  0  0  0  0
  7  8  2  0  0  0  0
  8  9  1  0  0  0  0
  9 10  2  0  0  0  0
  9 11  1  0  0  0  0
  1 12  1  0  0  0  0
 13 14  1  0  0  0  0
 14 15  1  0  0  0  0
 14 16  1  6  0  0  0
 16 17  1  0  0  0  0
 16 18  1  0  0  0  0
 16 19  1  0  0  0  0
  2 15  1  0  0  0  0
  3 13  1  0  0  0  0
 20 21  1  0  0  0  0
 21 22  2  0  0  0  0
 21 36  1  0  0  0  0
 22 23  1  0  0  0  0
 23 24  2  0  0  0  0
 23 25  1  0  0  0  0
 26 25  1  1  0  0  0
 26 27  1  0  0  0  0
 26 29  1  0  0  0  0
 27 32  1  0  0  0  0
 28 29  1  0  0  0  0
 29 30  1  0  0  0  0
 29 31  1  0  0  0  0
 32 33  1  0  0  0  0
 33 34  2  0  0  0  0
 33 35  1  0  0  0  0
  4 27  1  0  0  0  0
 37 38  1  0  0  0  0
 37 39  1  0  0  0  0
 37 40  1  0  0  0  0
 40 41  2  0  0  0  0
  8 37  1  0  0  0  0
  7 42  1  0  0  0  0
M  END
> <score_Kier1>
0.517766

$$$$
suggested molecule #611
 MOE2019            2D

 42 44  0  0  1  0  0  0  0  0999 V2000
    3.4992   -1.2833    0.0000 C   0  0  0  0  0  0  0  0  0  1  0  0
    4.9992   -1.2762    0.0000 C   0  0  0  0  0  0  0  0  0  2  0  0
    5.7430    0.0263    0.0000 C   0  0  0  0  0  0  0  0  0  3  0  0
    4.9869    1.3218    0.0000 C   0  0  0  0  0  0  0  0  0  4  0  0
    3.4870    1.3147    0.0000 C   0  0  0  0  0  0  0  0  0  5  0  0
    2.7431    0.0122    0.0000 C   0  0  0  0  0  0  0  0  0  6  0  0
    1.2431    0.0051    0.0000 C   0  0  0  0  0  0  0  0  0  7  0  0
    0.4870    1.3006    0.0000 C   0  0  0  0  0  0  0  0  0  8  0  0
    1.2309    2.6032    0.0000 C   0  0  0  0  0  0  0  0  0  9  0  0
    0.4748    3.8987    0.0000 O   0  0  0  0  0  0  0  0  0 10  0  0
    2.7309    2.6102    0.0000 O   0  0  0  0  0  0  0  0  0 11  0  0
    2.9041   -2.3253    0.0000 H   0  0  0  0  0  0  0  0  0  0  0  0
    7.2117   -0.2787    0.0000 O   0  0  0  0  0  0  0  0  0  0  0  0
    7.3755   -1.7697    0.0000 C   0  0  1  0  0  0  0  0  0  0  0  0
    6.0081   -2.3862    0.0000 C   0  0  0  0  0  0  0  0  0  0  0  0
    8.6781   -2.5136    0.0000 C   0  0  0  0  0  0  0  0  0  0  0  0
    7.9342   -3.8161    0.0000 C   0  0  0  0  0  0  0  0  0  0  0  0
    9.4220   -1.2110    0.0000 C   0  0  0  0  0  0  0  0  0  0  0  0
    9.9806   -3.2575    0.0000 O   0  0  0  0  0  0  0  0  0  0  0  0
   12.4869    1.3571    0.0000 C   0  0  0  0  0  0  0  0  0  0  0  0
   11.7308    2.6526    0.0000 C   0  0  0  0  0  0  0  0  0  0  0  0
   10.2308    2.6455    0.0000 C   0  0  0  0  0  0  0  0  0  0  0  0
    9.4747    3.9410    0.0000 C   0  0  0  0  0  0  0  0  0  0  0  0
   10.2186    5.2436    0.0000 O   0  0  0  0  0  0  0  0  0  0  0  0
    7.9747    3.9340    0.0000 O   0  0  0  0  0  0  0  0  0  0  0  0
    7.2308    2.6314    0.0000 C   0  0  2  0  0  0  0  0  0  0  0  0
    5.7308    2.6244    0.0000 C   0  0  0  0  0  0  0  0  0  0  0  0
    6.6914    0.5798    0.0000 O   0  0  0  0  0  0  0  0  0  0  0  0
    7.9869    1.3359    0.0000 C   0  0  0  0  0  0  0  0  0  0  0  0
    8.7430    0.0404    0.0000 C   0  0  0  0  0  0  0  0  0  0  0  0
    9.2824    2.0920    0.0000 C   0  0  0  0  0  0  0  0  0  0  0  0
    4.9747    3.9198    0.0000 O   0  0  0  0  0  0  0  0  0  0  0  0
    5.7186    5.2224    0.0000 C   0  0  0  0  0  0  0  0  0  0  0  0
    4.9625    6.5179    0.0000 O   0  0  0  0  0  0  0  0  0  0  0  0
    7.2186    5.2295    0.0000 C   0  0  0  0  0  0  0  0  0  0  0  0
   12.4746    3.9551    0.0000 C   0  0  0  0  0  0  0  0  0  0  0  0
   -1.0130    1.2936    0.0000 C   0  0  0  0  0  0  0  0  0  0  0  0
   -1.0059   -0.2064    0.0000 C   0  0  0  0  0  0  0  0  0  0  0  0
   -1.0200    2.7936    0.0000 C   0  0  0  0  0  0  0  0  0  0  0  0
   -2.5130    1.2865    0.0000 C   0  0  0  0  0  0  0  0  0  0  0  0
   -3.2569   -0.0160    0.0000 C   0  0  0  0  0  0  0  0  0  0  0  0
    0.6480   -1.0369    0.0000 H   0  0  0  0  0  0  0  0  0  0  0  0
  1  2  2  0  0  0  0
  1  6  1  0  0  0  0
  2  3  1  0  0  0  0
  3  4  2  0  0  0  0
  4  5  1  0  0  0  0
  5  6  2  0  0  0  0
  5 11  1  0  0  0  0
  6  7  1  0  0  0  0
  7  8  2  0  0  0  0
  8  9  1  0  0  0  0
  9 10  2  0  0  0  0
  9 11  1  0  0  0  0
  1 12  1  0  0  0  0
 13 14  1  0  0  0  0
 14 15  1  0  0  0  0
 14 16  1  6  0  0  0
 16 17  1  0  0  0  0
 16 18  1  0  0  0  0
 16 19  1  0  0  0  0
  2 15  1  0  0  0  0
  3 13  1  0  0  0  0
 20 21  1  0  0  0  0
 21 22  2  0  0  0  0
 21 36  1  0  0  0  0
 22 23  1  0  0  0  0
 23 24  2  0  0  0  0
 23 25  1  0  0  0  0
 26 25  1  1  0  0  0
 26 27  1  0  0  0  0
 26 29  1  0  0  0  0
 27 32  1  0  0  0  0
 28 29  1  0  0  0  0
 29 30  1  0  0  0  0
 29 31  1  0  0  0  0
 32 33  1  0  0  0  0
 33 34  2  0  0  0  0
 33 35  1  0  0  0  0
  4 27  1  0  0  0  0
 37 38  1  0  0  0  0
 37 39  1  0  0  0  0
 37 40  1  0  0  0  0
 40 41  2  0  0  0  0
  8 37  1  0  0  0  0
  7 42  1  0  0  0  0
M  END
> <score_Kier2>
0.516578

$$$$
suggested molecule #612
 MOE2019            2D

 42 44  0  0  1  0  0  0  0  0999 V2000
    3.4992   -1.2833    0.0000 C   0  0  0  0  0  0  0  0  0  1  0  0
    4.9992   -1.2762    0.0000 C   0  0  0  0  0  0  0  0  0  2  0  0
    5.7430    0.0263    0.0000 C   0  0  0  0  0  0  0  0  0  3  0  0
    4.9869    1.3218    0.0000 C   0  0  0  0  0  0  0  0  0  4  0  0
    3.4870    1.3147    0.0000 C   0  0  0  0  0  0  0  0  0  5  0  0
    2.7431    0.0122    0.0000 C   0  0  0  0  0  0  0  0  0  6  0  0
    1.2431    0.0051    0.0000 C   0  0  0  0  0  0  0  0  0  7  0  0
    0.4870    1.3006    0.0000 C   0  0  0  0  0  0  0  0  0  8  0  0
    1.2309    2.6032    0.0000 C   0  0  0  0  0  0  0  0  0  9  0  0
    0.4748    3.8987    0.0000 O   0  0  0  0  0  0  0  0  0 10  0  0
    2.7309    2.6102    0.0000 O   0  0  0  0  0  0  0  0  0 11  0  0
    2.9041   -2.3253    0.0000 H   0  0  0  0  0  0  0  0  0  0  0  0
    7.2117   -0.2787    0.0000 O   0  0  0  0  0  0  0  0  0  0  0  0
    7.3755   -1.7697    0.0000 C   0  0  1  0  0  0  0  0  0  0  0  0
    6.0081   -2.3862    0.0000 C   0  0  0  0  0  0  0  0  0  0  0  0
    8.6781   -2.5136    0.0000 C   0  0  0  0  0  0  0  0  0  0  0  0
    7.9342   -3.8161    0.0000 C   0  0  0  0  0  0  0  0  0  0  0  0
    9.4220   -1.2110    0.0000 C   0  0  0  0  0  0  0  0  0  0  0  0
    9.9806   -3.2575    0.0000 O   0  0  0  0  0  0  0  0  0  0  0  0
   12.4869    1.3571    0.0000 C   0  0  0  0  0  0  0  0  0  0  0  0
   11.7308    2.6526    0.0000 C   0  0  0  0  0  0  0  0  0  0  0  0
   10.2308    2.6455    0.0000 C   0  0  0  0  0  0  0  0  0  0  0  0
    9.4747    3.9410    0.0000 C   0  0  0  0  0  0  0  0  0  0  0  0
   10.2186    5.2436    0.0000 O   0  0  0  0  0  0  0  0  0  0  0  0
    7.9747    3.9340    0.0000 O   0  0  0  0  0  0  0  0  0  0  0  0
    7.2308    2.6314    0.0000 C   0  0  2  0  0  0  0  0  0  0  0  0
    5.7308    2.6244    0.0000 C   0  0  0  0  0  0  0  0  0  0  0  0
    6.6914    0.5798    0.0000 O   0  0  0  0  0  0  0  0  0  0  0  0
    7.9869    1.3359    0.0000 C   0  0  0  0  0  0  0  0  0  0  0  0
    8.7430    0.0404    0.0000 C   0  0  0  0  0  0  0  0  0  0  0  0
    9.2824    2.0920    0.0000 C   0  0  0  0  0  0  0  0  0  0  0  0
    4.9747    3.9198    0.0000 O   0  0  0  0  0  0  0  0  0  0  0  0
    5.7186    5.2224    0.0000 C   0  0  0  0  0  0  0  0  0  0  0  0
    4.9625    6.5179    0.0000 O   0  0  0  0  0  0  0  0  0  0  0  0
    7.2186    5.2295    0.0000 C   0  0  0  0  0  0  0  0  0  0  0  0
   12.4746    3.9551    0.0000 C   0  0  0  0  0  0  0  0  0  0  0  0
   -1.0130    1.2936    0.0000 C   0  0  0  0  0  0  0  0  0  0  0  0
   -1.0059   -0.2064    0.0000 C   0  0  0  0  0  0  0  0  0  0  0  0
   -1.0200    2.7936    0.0000 C   0  0  0  0  0  0  0  0  0  0  0  0
   -2.5130    1.2865    0.0000 C   0  0  0  0  0  0  0  0  0  0  0  0
   -3.2569   -0.0160    0.0000 C   0  0  0  0  0  0  0  0  0  0  0  0
    0.6480   -1.0369    0.0000 H   0  0  0  0  0  0  0  0  0  0  0  0
  1  2  2  0  0  0  0
  1  6  1  0  0  0  0
  2  3  1  0  0  0  0
  3  4  2  0  0  0  0
  4  5  1  0  0  0  0
  5  6  2  0  0  0  0
  5 11  1  0  0  0  0
  6  7  1  0  0  0  0
  7  8  2  0  0  0  0
  8  9  1  0  0  0  0
  9 10  2  0  0  0  0
  9 11  1  0  0  0  0
  1 12  1  0  0  0  0
 13 14  1  0  0  0  0
 14 15  1  0  0  0  0
 14 16  1  6  0  0  0
 16 17  1  0  0  0  0
 16 18  1  0  0  0  0
 16 19  1  0  0  0  0
  2 15  1  0  0  0  0
  3 13  1  0  0  0  0
 20 21  1  0  0  0  0
 21 22  2  0  0  0  0
 21 36  1  0  0  0  0
 22 23  1  0  0  0  0
 23 24  2  0  0  0  0
 23 25  1  0  0  0  0
 26 25  1  1  0  0  0
 26 27  1  0  0  0  0
 26 29  1  0  0  0  0
 27 32  1  0  0  0  0
 28 29  1  0  0  0  0
 29 30  1  0  0  0  0
 29 31  1  0  0  0  0
 32 33  1  0  0  0  0
 33 34  2  0  0  0  0
 33 35  1  0  0  0  0
  4 27  1  0  0  0  0
 37 38  1  0  0  0  0
 37 39  1  0  0  0  0
 37 40  1  0  0  0  0
 40 41  2  0  0  0  0
  8 37  1  0  0  0  0
  7 42  1  0  0  0  0
M  END
> <score_KierA1>
0.517597

$$$$
suggested molecule #613
 MOE2019            2D

 42 44  0  0  1  0  0  0  0  0999 V2000
    3.4992   -1.2833    0.0000 C   0  0  0  0  0  0  0  0  0  1  0  0
    4.9992   -1.2762    0.0000 C   0  0  0  0  0  0  0  0  0  2  0  0
    5.7430    0.0263    0.0000 C   0  0  0  0  0  0  0  0  0  3  0  0
    4.9869    1.3218    0.0000 C   0  0  0  0  0  0  0  0  0  4  0  0
    3.4870    1.3147    0.0000 C   0  0  0  0  0  0  0  0  0  5  0  0
    2.7431    0.0122    0.0000 C   0  0  0  0  0  0  0  0  0  6  0  0
    1.2431    0.0051    0.0000 C   0  0  0  0  0  0  0  0  0  7  0  0
    0.4870    1.3006    0.0000 C   0  0  0  0  0  0  0  0  0  8  0  0
    1.2309    2.6032    0.0000 C   0  0  0  0  0  0  0  0  0  9  0  0
    0.4748    3.8987    0.0000 O   0  0  0  0  0  0  0  0  0 10  0  0
    2.7309    2.6102    0.0000 O   0  0  0  0  0  0  0  0  0 11  0  0
    2.9041   -2.3253    0.0000 H   0  0  0  0  0  0  0  0  0  0  0  0
    7.2117   -0.2787    0.0000 O   0  0  0  0  0  0  0  0  0  0  0  0
    7.3755   -1.7697    0.0000 C   0  0  1  0  0  0  0  0  0  0  0  0
    6.0081   -2.3862    0.0000 C   0  0  0  0  0  0  0  0  0  0  0  0
    8.6781   -2.5136    0.0000 C   0  0  0  0  0  0  0  0  0  0  0  0
    7.9342   -3.8161    0.0000 C   0  0  0  0  0  0  0  0  0  0  0  0
    9.4220   -1.2110    0.0000 C   0  0  0  0  0  0  0  0  0  0  0  0
    9.9806   -3.2575    0.0000 O   0  0  0  0  0  0  0  0  0  0  0  0
   12.4869    1.3571    0.0000 C   0  0  0  0  0  0  0  0  0  0  0  0
   11.7308    2.6526    0.0000 C   0  0  0  0  0  0  0  0  0  0  0  0
   10.2308    2.6455    0.0000 C   0  0  0  0  0  0  0  0  0  0  0  0
    9.4747    3.9410    0.0000 C   0  0  0  0  0  0  0  0  0  0  0  0
   10.2186    5.2436    0.0000 O   0  0  0  0  0  0  0  0  0  0  0  0
    7.9747    3.9340    0.0000 O   0  0  0  0  0  0  0  0  0  0  0  0
    7.2308    2.6314    0.0000 C   0  0  2  0  0  0  0  0  0  0  0  0
    5.7308    2.6244    0.0000 C   0  0  0  0  0  0  0  0  0  0  0  0
    6.6914    0.5798    0.0000 O   0  0  0  0  0  0  0  0  0  0  0  0
    7.9869    1.3359    0.0000 C   0  0  0  0  0  0  0  0  0  0  0  0
    8.7430    0.0404    0.0000 C   0  0  0  0  0  0  0  0  0  0  0  0
    9.2824    2.0920    0.0000 C   0  0  0  0  0  0  0  0  0  0  0  0
    4.9747    3.9198    0.0000 O   0  0  0  0  0  0  0  0  0  0  0  0
    5.7186    5.2224    0.0000 C   0  0  0  0  0  0  0  0  0  0  0  0
    4.9625    6.5179    0.0000 O   0  0  0  0  0  0  0  0  0  0  0  0
    7.2186    5.2295    0.0000 C   0  0  0  0  0  0  0  0  0  0  0  0
   12.4746    3.9551    0.0000 C   0  0  0  0  0  0  0  0  0  0  0  0
   -1.0130    1.2936    0.0000 C   0  0  0  0  0  0  0  0  0  0  0  0
   -1.0059   -0.2064    0.0000 C   0  0  0  0  0  0  0  0  0  0  0  0
   -1.0200    2.7936    0.0000 C   0  0  0  0  0  0  0  0  0  0  0  0
   -2.5130    1.2865    0.0000 C   0  0  0  0  0  0  0  0  0  0  0  0
   -3.2569   -0.0160    0.0000 C   0  0  0  0  0  0  0  0  0  0  0  0
    0.6480   -1.0369    0.0000 H   0  0  0  0  0  0  0  0  0  0  0  0
  1  2  2  0  0  0  0
  1  6  1  0  0  0  0
  2  3  1  0  0  0  0
  3  4  2  0  0  0  0
  4  5  1  0  0  0  0
  5  6  2  0  0  0  0
  5 11  1  0  0  0  0
  6  7  1  0  0  0  0
  7  8  2  0  0  0  0
  8  9  1  0  0  0  0
  9 10  2  0  0  0  0
  9 11  1  0  0  0  0
  1 12  1  0  0  0  0
 13 14  1  0  0  0  0
 14 15  1  0  0  0  0
 14 16  1  6  0  0  0
 16 17  1  0  0  0  0
 16 18  1  0  0  0  0
 16 19  1  0  0  0  0
  2 15  1  0  0  0  0
  3 13  1  0  0  0  0
 20 21  1  0  0  0  0
 21 22  2  0  0  0  0
 21 36  1  0  0  0  0
 22 23  1  0  0  0  0
 23 24  2  0  0  0  0
 23 25  1  0  0  0  0
 26 25  1  1  0  0  0
 26 27  1  0  0  0  0
 26 29  1  0  0  0  0
 27 32  1  0  0  0  0
 28 29  1  0  0  0  0
 29 30  1  0  0  0  0
 29 31  1  0  0  0  0
 32 33  1  0  0  0  0
 33 34  2  0  0  0  0
 33 35  1  0  0  0  0
  4 27  1  0  0  0  0
 37 38  1  0  0  0  0
 37 39  1  0  0  0  0
 37 40  1  0  0  0  0
 40 41  2  0  0  0  0
  8 37  1  0  0  0  0
  7 42  1  0  0  0  0
M  END
> <score_KierA2>
0.516771

$$$$
suggested molecule #614
 MOE2019            2D

 31 33  0  0  1  0  0  0  0  0999 V2000
    3.4992   -1.2833    0.0000 C   0  0  0  0  0  0  0  0  0  1  0  0
    4.9992   -1.2762    0.0000 C   0  0  0  0  0  0  0  0  0  2  0  0
    5.7430    0.0263    0.0000 C   0  0  0  0  0  0  0  0  0  3  0  0
    4.9869    1.3218    0.0000 C   0  0  0  0  0  0  0  0  0  4  0  0
    3.4870    1.3147    0.0000 C   0  0  0  0  0  0  0  0  0  5  0  0
    2.7431    0.0122    0.0000 C   0  0  0  0  0  0  0  0  0  6  0  0
    1.2431    0.0051    0.0000 C   0  0  0  0  0  0  0  0  0  7  0  0
    0.4870    1.3006    0.0000 C   0  0  0  0  0  0  0  0  0  8  0  0
    1.2309    2.6032    0.0000 C   0  0  0  0  0  0  0  0  0  9  0  0
    0.4748    3.8987    0.0000 O   0  0  0  0  0  0  0  0  0 10  0  0
    2.7309    2.6102    0.0000 O   0  0  0  0  0  0  0  0  0 11  0  0
    2.9041   -2.3253    0.0000 H   0  0  0  0  0  0  0  0  0  0  0  0
    7.2117   -0.2787    0.0000 O   0  0  0  0  0  0  0  0  0  0  0  0
    7.3755   -1.7697    0.0000 C   0  0  1  0  0  0  0  0  0  0  0  0
    6.0081   -2.3862    0.0000 C   0  0  0  0  0  0  0  0  0  0  0  0
    8.6781   -2.5136    0.0000 C   0  0  0  0  0  0  0  0  0  0  0  0
    9.4220   -1.2110    0.0000 C   0  0  0  0  0  0  0  0  0  0  0  0
    7.9342   -3.8161    0.0000 C   0  0  0  0  0  0  0  0  0  0  0  0
    9.9806   -3.2575    0.0000 O   0  0  0  0  0  0  0  0  0  0  0  0
    5.7308    2.6244    0.0000 C   0  0  0  0  0  0  0  0  0  0  0  0
    7.2308    2.6314    0.0000 C   0  0  0  0  0  0  0  0  0  0  0  0
    7.9747    3.9340    0.0000 C   0  0  0  0  0  0  0  0  0  0  0  0
    9.2772    3.1901    0.0000 O   0  0  0  0  0  0  0  0  0  0  0  0
    8.7186    5.2365    0.0000 C   0  0  0  0  0  0  0  0  0  0  0  0
    6.6721    4.6778    0.0000 C   0  0  0  0  0  0  0  0  0  0  0  0
   -1.0130    1.2936    0.0000 C   0  0  0  0  0  0  0  0  0  0  0  0
   -1.0059   -0.2064    0.0000 C   0  0  0  0  0  0  0  0  0  0  0  0
   -1.0200    2.7936    0.0000 C   0  0  0  0  0  0  0  0  0  0  0  0
   -2.5130    1.2865    0.0000 C   0  0  0  0  0  0  0  0  0  0  0  0
   -3.2569   -0.0160    0.0000 C   0  0  0  0  0  0  0  0  0  0  0  0
    0.6480   -1.0369    0.0000 H   0  0  0  0  0  0  0  0  0  0  0  0
  1  2  2  0  0  0  0
  1  6  1  0  0  0  0
  2  3  1  0  0  0  0
  3  4  2  0  0  0  0
  4  5  1  0  0  0  0
  5  6  2  0  0  0  0
  5 11  1  0  0  0  0
  6  7  1  0  0  0  0
  7  8  2  0  0  0  0
  8  9  1  0  0  0  0
  9 10  2  0  0  0  0
  9 11  1  0  0  0  0
  1 12  1  0  0  0  0
 13 14  1  0  0  0  0
 14 15  1  0  0  0  0
 14 16  1  6  0  0  0
 16 17  1  0  0  0  0
 16 18  1  0  0  0  0
 16 19  1  0  0  0  0
  2 15  1  0  0  0  0
  3 13  1  0  0  0  0
 20 21  2  0  0  0  0
 21 22  1  0  0  0  0
 22 23  1  0  0  0  0
 22 24  1  0  0  0  0
 22 25  1  0  0  0  0
  4 20  1  0  0  0  0
 26 27  1  0  0  0  0
 26 28  1  0  0  0  0
 26 29  1  0  0  0  0
 29 30  2  0  0  0  0
  8 26  1  0  0  0  0
  7 31  1  0  0  0  0
M  END
> <score_Kier1>
0.517742

$$$$
suggested molecule #615
 MOE2019            2D

 31 33  0  0  1  0  0  0  0  0999 V2000
    3.4992   -1.2833    0.0000 C   0  0  0  0  0  0  0  0  0  1  0  0
    4.9992   -1.2762    0.0000 C   0  0  0  0  0  0  0  0  0  2  0  0
    5.7430    0.0263    0.0000 C   0  0  0  0  0  0  0  0  0  3  0  0
    4.9869    1.3218    0.0000 C   0  0  0  0  0  0  0  0  0  4  0  0
    3.4870    1.3147    0.0000 C   0  0  0  0  0  0  0  0  0  5  0  0
    2.7431    0.0122    0.0000 C   0  0  0  0  0  0  0  0  0  6  0  0
    1.2431    0.0051    0.0000 C   0  0  0  0  0  0  0  0  0  7  0  0
    0.4870    1.3006    0.0000 C   0  0  0  0  0  0  0  0  0  8  0  0
    1.2309    2.6032    0.0000 C   0  0  0  0  0  0  0  0  0  9  0  0
    0.4748    3.8987    0.0000 O   0  0  0  0  0  0  0  0  0 10  0  0
    2.7309    2.6102    0.0000 O   0  0  0  0  0  0  0  0  0 11  0  0
    2.9041   -2.3253    0.0000 H   0  0  0  0  0  0  0  0  0  0  0  0
    7.2117   -0.2787    0.0000 O   0  0  0  0  0  0  0  0  0  0  0  0
    7.3755   -1.7697    0.0000 C   0  0  1  0  0  0  0  0  0  0  0  0
    6.0081   -2.3862    0.0000 C   0  0  0  0  0  0  0  0  0  0  0  0
    8.6781   -2.5136    0.0000 C   0  0  0  0  0  0  0  0  0  0  0  0
    9.4220   -1.2110    0.0000 C   0  0  0  0  0  0  0  0  0  0  0  0
    7.9342   -3.8161    0.0000 C   0  0  0  0  0  0  0  0  0  0  0  0
    9.9806   -3.2575    0.0000 O   0  0  0  0  0  0  0  0  0  0  0  0
    5.7308    2.6244    0.0000 C   0  0  0  0  0  0  0  0  0  0  0  0
    7.2308    2.6314    0.0000 C   0  0  0  0  0  0  0  0  0  0  0  0
    7.9747    3.9340    0.0000 C   0  0  0  0  0  0  0  0  0  0  0  0
    9.2772    3.1901    0.0000 O   0  0  0  0  0  0  0  0  0  0  0  0
    8.7186    5.2365    0.0000 C   0  0  0  0  0  0  0  0  0  0  0  0
    6.6721    4.6778    0.0000 C   0  0  0  0  0  0  0  0  0  0  0  0
   -1.0130    1.2936    0.0000 C   0  0  0  0  0  0  0  0  0  0  0  0
   -1.0059   -0.2064    0.0000 C   0  0  0  0  0  0  0  0  0  0  0  0
   -1.0200    2.7936    0.0000 C   0  0  0  0  0  0  0  0  0  0  0  0
   -2.5130    1.2865    0.0000 C   0  0  0  0  0  0  0  0  0  0  0  0
   -3.2569   -0.0160    0.0000 C   0  0  0  0  0  0  0  0  0  0  0  0
    0.6480   -1.0369    0.0000 H   0  0  0  0  0  0  0  0  0  0  0  0
  1  2  2  0  0  0  0
  1  6  1  0  0  0  0
  2  3  1  0  0  0  0
  3  4  2  0  0  0  0
  4  5  1  0  0  0  0
  5  6  2  0  0  0  0
  5 11  1  0  0  0  0
  6  7  1  0  0  0  0
  7  8  2  0  0  0  0
  8  9  1  0  0  0  0
  9 10  2  0  0  0  0
  9 11  1  0  0  0  0
  1 12  1  0  0  0  0
 13 14  1  0  0  0  0
 14 15  1  0  0  0  0
 14 16  1  6  0  0  0
 16 17  1  0  0  0  0
 16 18  1  0  0  0  0
 16 19  1  0  0  0  0
  2 15  1  0  0  0  0
  3 13  1  0  0  0  0
 20 21  2  0  0  0  0
 21 22  1  0  0  0  0
 22 23  1  0  0  0  0
 22 24  1  0  0  0  0
 22 25  1  0  0  0  0
  4 20  1  0  0  0  0
 26 27  1  0  0  0  0
 26 28  1  0  0  0  0
 26 29  1  0  0  0  0
 29 30  2  0  0  0  0
  8 26  1  0  0  0  0
  7 31  1  0  0  0  0
M  END
> <score_Kier2>
0.516581

$$$$
suggested molecule #616
 MOE2019            2D

 31 33  0  0  1  0  0  0  0  0999 V2000
    3.4992   -1.2833    0.0000 C   0  0  0  0  0  0  0  0  0  1  0  0
    4.9992   -1.2762    0.0000 C   0  0  0  0  0  0  0  0  0  2  0  0
    5.7430    0.0263    0.0000 C   0  0  0  0  0  0  0  0  0  3  0  0
    4.9869    1.3218    0.0000 C   0  0  0  0  0  0  0  0  0  4  0  0
    3.4870    1.3147    0.0000 C   0  0  0  0  0  0  0  0  0  5  0  0
    2.7431    0.0122    0.0000 C   0  0  0  0  0  0  0  0  0  6  0  0
    1.2431    0.0051    0.0000 C   0  0  0  0  0  0  0  0  0  7  0  0
    0.4870    1.3006    0.0000 C   0  0  0  0  0  0  0  0  0  8  0  0
    1.2309    2.6032    0.0000 C   0  0  0  0  0  0  0  0  0  9  0  0
    0.4748    3.8987    0.0000 O   0  0  0  0  0  0  0  0  0 10  0  0
    2.7309    2.6102    0.0000 O   0  0  0  0  0  0  0  0  0 11  0  0
    2.9041   -2.3253    0.0000 H   0  0  0  0  0  0  0  0  0  0  0  0
    7.2117   -0.2787    0.0000 O   0  0  0  0  0  0  0  0  0  0  0  0
    7.3755   -1.7697    0.0000 C   0  0  1  0  0  0  0  0  0  0  0  0
    6.0081   -2.3862    0.0000 C   0  0  0  0  0  0  0  0  0  0  0  0
    8.6781   -2.5136    0.0000 C   0  0  0  0  0  0  0  0  0  0  0  0
    9.4220   -1.2110    0.0000 C   0  0  0  0  0  0  0  0  0  0  0  0
    7.9342   -3.8161    0.0000 C   0  0  0  0  0  0  0  0  0  0  0  0
    9.9806   -3.2575    0.0000 O   0  0  0  0  0  0  0  0  0  0  0  0
    5.7308    2.6244    0.0000 C   0  0  0  0  0  0  0  0  0  0  0  0
    7.2308    2.6314    0.0000 C   0  0  0  0  0  0  0  0  0  0  0  0
    7.9747    3.9340    0.0000 C   0  0  0  0  0  0  0  0  0  0  0  0
    9.2772    3.1901    0.0000 O   0  0  0  0  0  0  0  0  0  0  0  0
    8.7186    5.2365    0.0000 C   0  0  0  0  0  0  0  0  0  0  0  0
    6.6721    4.6778    0.0000 C   0  0  0  0  0  0  0  0  0  0  0  0
   -1.0130    1.2936    0.0000 C   0  0  0  0  0  0  0  0  0  0  0  0
   -1.0059   -0.2064    0.0000 C   0  0  0  0  0  0  0  0  0  0  0  0
   -1.0200    2.7936    0.0000 C   0  0  0  0  0  0  0  0  0  0  0  0
   -2.5130    1.2865    0.0000 C   0  0  0  0  0  0  0  0  0  0  0  0
   -3.2569   -0.0160    0.0000 C   0  0  0  0  0  0  0  0  0  0  0  0
    0.6480   -1.0369    0.0000 H   0  0  0  0  0  0  0  0  0  0  0  0
  1  2  2  0  0  0  0
  1  6  1  0  0  0  0
  2  3  1  0  0  0  0
  3  4  2  0  0  0  0
  4  5  1  0  0  0  0
  5  6  2  0  0  0  0
  5 11  1  0  0  0  0
  6  7  1  0  0  0  0
  7  8  2  0  0  0  0
  8  9  1  0  0  0  0
  9 10  2  0  0  0  0
  9 11  1  0  0  0  0
  1 12  1  0  0  0  0
 13 14  1  0  0  0  0
 14 15  1  0  0  0  0
 14 16  1  6  0  0  0
 16 17  1  0  0  0  0
 16 18  1  0  0  0  0
 16 19  1  0  0  0  0
  2 15  1  0  0  0  0
  3 13  1  0  0  0  0
 20 21  2  0  0  0  0
 21 22  1  0  0  0  0
 22 23  1  0  0  0  0
 22 24  1  0  0  0  0
 22 25  1  0  0  0  0
  4 20  1  0  0  0  0
 26 27  1  0  0  0  0
 26 28  1  0  0  0  0
 26 29  1  0  0  0  0
 29 30  2  0  0  0  0
  8 26  1  0  0  0  0
  7 31  1  0  0  0  0
M  END
> <score_KierA1>
0.517608

$$$$
suggested molecule #617
 MOE2019            2D

 31 33  0  0  1  0  0  0  0  0999 V2000
    3.4992   -1.2833    0.0000 C   0  0  0  0  0  0  0  0  0  1  0  0
    4.9992   -1.2762    0.0000 C   0  0  0  0  0  0  0  0  0  2  0  0
    5.7430    0.0263    0.0000 C   0  0  0  0  0  0  0  0  0  3  0  0
    4.9869    1.3218    0.0000 C   0  0  0  0  0  0  0  0  0  4  0  0
    3.4870    1.3147    0.0000 C   0  0  0  0  0  0  0  0  0  5  0  0
    2.7431    0.0122    0.0000 C   0  0  0  0  0  0  0  0  0  6  0  0
    1.2431    0.0051    0.0000 C   0  0  0  0  0  0  0  0  0  7  0  0
    0.4870    1.3006    0.0000 C   0  0  0  0  0  0  0  0  0  8  0  0
    1.2309    2.6032    0.0000 C   0  0  0  0  0  0  0  0  0  9  0  0
    0.4748    3.8987    0.0000 O   0  0  0  0  0  0  0  0  0 10  0  0
    2.7309    2.6102    0.0000 O   0  0  0  0  0  0  0  0  0 11  0  0
    2.9041   -2.3253    0.0000 H   0  0  0  0  0  0  0  0  0  0  0  0
    7.2117   -0.2787    0.0000 O   0  0  0  0  0  0  0  0  0  0  0  0
    7.3755   -1.7697    0.0000 C   0  0  1  0  0  0  0  0  0  0  0  0
    6.0081   -2.3862    0.0000 C   0  0  0  0  0  0  0  0  0  0  0  0
    8.6781   -2.5136    0.0000 C   0  0  0  0  0  0  0  0  0  0  0  0
    9.4220   -1.2110    0.0000 C   0  0  0  0  0  0  0  0  0  0  0  0
    7.9342   -3.8161    0.0000 C   0  0  0  0  0  0  0  0  0  0  0  0
    9.9806   -3.2575    0.0000 O   0  0  0  0  0  0  0  0  0  0  0  0
    5.7308    2.6244    0.0000 C   0  0  0  0  0  0  0  0  0  0  0  0
    7.2308    2.6314    0.0000 C   0  0  0  0  0  0  0  0  0  0  0  0
    7.9747    3.9340    0.0000 C   0  0  0  0  0  0  0  0  0  0  0  0
    9.2772    3.1901    0.0000 O   0  0  0  0  0  0  0  0  0  0  0  0
    8.7186    5.2365    0.0000 C   0  0  0  0  0  0  0  0  0  0  0  0
    6.6721    4.6778    0.0000 C   0  0  0  0  0  0  0  0  0  0  0  0
   -1.0130    1.2936    0.0000 C   0  0  0  0  0  0  0  0  0  0  0  0
   -1.0059   -0.2064    0.0000 C   0  0  0  0  0  0  0  0  0  0  0  0
   -1.0200    2.7936    0.0000 C   0  0  0  0  0  0  0  0  0  0  0  0
   -2.5130    1.2865    0.0000 C   0  0  0  0  0  0  0  0  0  0  0  0
   -3.2569   -0.0160    0.0000 C   0  0  0  0  0  0  0  0  0  0  0  0
    0.6480   -1.0369    0.0000 H   0  0  0  0  0  0  0  0  0  0  0  0
  1  2  2  0  0  0  0
  1  6  1  0  0  0  0
  2  3  1  0  0  0  0
  3  4  2  0  0  0  0
  4  5  1  0  0  0  0
  5  6  2  0  0  0  0
  5 11  1  0  0  0  0
  6  7  1  0  0  0  0
  7  8  2  0  0  0  0
  8  9  1  0  0  0  0
  9 10  2  0  0  0  0
  9 11  1  0  0  0  0
  1 12  1  0  0  0  0
 13 14  1  0  0  0  0
 14 15  1  0  0  0  0
 14 16  1  6  0  0  0
 16 17  1  0  0  0  0
 16 18  1  0  0  0  0
 16 19  1  0  0  0  0
  2 15  1  0  0  0  0
  3 13  1  0  0  0  0
 20 21  2  0  0  0  0
 21 22  1  0  0  0  0
 22 23  1  0  0  0  0
 22 24  1  0  0  0  0
 22 25  1  0  0  0  0
  4 20  1  0  0  0  0
 26 27  1  0  0  0  0
 26 28  1  0  0  0  0
 26 29  1  0  0  0  0
 29 30  2  0  0  0  0
  8 26  1  0  0  0  0
  7 31  1  0  0  0  0
M  END
> <score_KierA2>
0.516803

$$$$
suggested molecule #618
 MOE2019            2D

 31 33  0  0  1  0  0  0  0  0999 V2000
    3.4992   -1.2833    0.0000 C   0  0  0  0  0  0  0  0  0  1  0  0
    4.9992   -1.2762    0.0000 C   0  0  0  0  0  0  0  0  0  2  0  0
    5.7430    0.0263    0.0000 C   0  0  0  0  0  0  0  0  0  3  0  0
    4.9869    1.3218    0.0000 C   0  0  0  0  0  0  0  0  0  4  0  0
    3.4870    1.3147    0.0000 C   0  0  0  0  0  0  0  0  0  5  0  0
    2.7431    0.0122    0.0000 C   0  0  0  0  0  0  0  0  0  6  0  0
    1.2431    0.0051    0.0000 C   0  0  0  0  0  0  0  0  0  7  0  0
    0.4870    1.3006    0.0000 C   0  0  0  0  0  0  0  0  0  8  0  0
    1.2309    2.6032    0.0000 C   0  0  0  0  0  0  0  0  0  9  0  0
    0.4748    3.8987    0.0000 O   0  0  0  0  0  0  0  0  0 10  0  0
    2.7309    2.6102    0.0000 O   0  0  0  0  0  0  0  0  0 11  0  0
    2.9041   -2.3253    0.0000 H   0  0  0  0  0  0  0  0  0  0  0  0
    7.2117   -0.2787    0.0000 O   0  0  0  0  0  0  0  0  0  0  0  0
    7.3755   -1.7697    0.0000 C   0  0  1  0  0  0  0  0  0  0  0  0
    6.0081   -2.3862    0.0000 C   0  0  0  0  0  0  0  0  0  0  0  0
    8.6781   -2.5136    0.0000 C   0  0  0  0  0  0  0  0  0  0  0  0
    9.4220   -1.2110    0.0000 C   0  0  0  0  0  0  0  0  0  0  0  0
    7.9342   -3.8161    0.0000 C   0  0  0  0  0  0  0  0  0  0  0  0
    9.9806   -3.2575    0.0000 O   0  0  0  0  0  0  0  0  0  0  0  0
    5.7308    2.6244    0.0000 C   0  0  0  0  0  0  0  0  0  0  0  0
    7.2308    2.6314    0.0000 C   0  0  0  0  0  0  0  0  0  0  0  0
    7.9747    3.9340    0.0000 C   0  0  0  0  0  0  0  0  0  0  0  0
    9.2772    3.1901    0.0000 O   0  0  0  0  0  0  0  0  0  0  0  0
    8.7186    5.2365    0.0000 C   0  0  0  0  0  0  0  0  0  0  0  0
    6.6721    4.6778    0.0000 C   0  0  0  0  0  0  0  0  0  0  0  0
   -1.0130    1.2936    0.0000 C   0  0  0  0  0  0  0  0  0  0  0  0
   -1.0059   -0.2064    0.0000 C   0  0  0  0  0  0  0  0  0  0  0  0
   -1.0200    2.7936    0.0000 C   0  0  0  0  0  0  0  0  0  0  0  0
   -2.5130    1.2865    0.0000 C   0  0  0  0  0  0  0  0  0  0  0  0
   -3.2569   -0.0160    0.0000 C   0  0  0  0  0  0  0  0  0  0  0  0
    0.6480   -1.0369    0.0000 H   0  0  0  0  0  0  0  0  0  0  0  0
  1  2  2  0  0  0  0
  1  6  1  0  0  0  0
  2  3  1  0  0  0  0
  3  4  2  0  0  0  0
  4  5  1  0  0  0  0
  5  6  2  0  0  0  0
  5 11  1  0  0  0  0
  6  7  1  0  0  0  0
  7  8  2  0  0  0  0
  8  9  1  0  0  0  0
  9 10  2  0  0  0  0
  9 11  1  0  0  0  0
  1 12  1  0  0  0  0
 13 14  1  0  0  0  0
 14 15  1  0  0  0  0
 14 16  1  6  0  0  0
 16 17  1  0  0  0  0
 16 18  1  0  0  0  0
 16 19  1  0  0  0  0
  2 15  1  0  0  0  0
  3 13  1  0  0  0  0
 20 21  2  0  0  0  0
 21 22  1  0  0  0  0
 22 23  1  0  0  0  0
 22 24  1  0  0  0  0
 22 25  1  0  0  0  0
  4 20  1  0  0  0  0
 26 27  1  0  0  0  0
 26 28  1  0  0  0  0
 26 29  1  0  0  0  0
 29 30  2  0  0  0  0
  8 26  1  0  0  0  0
  7 31  1  0  0  0  0
M  END
> <score_KierFlex>
0.516321

$$$$
suggested molecule #619
 MOE2019            2D

 42 44  0  0  1  0  0  0  0  0999 V2000
    3.4992   -1.2833    0.0000 C   0  0  0  0  0  0  0  0  0  1  0  0
    4.9992   -1.2762    0.0000 C   0  0  0  0  0  0  0  0  0  2  0  0
    5.7430    0.0263    0.0000 C   0  0  0  0  0  0  0  0  0  3  0  0
    4.9869    1.3218    0.0000 C   0  0  0  0  0  0  0  0  0  4  0  0
    3.4870    1.3147    0.0000 C   0  0  0  0  0  0  0  0  0  5  0  0
    2.7431    0.0122    0.0000 C   0  0  0  0  0  0  0  0  0  6  0  0
    1.2431    0.0051    0.0000 C   0  0  0  0  0  0  0  0  0  7  0  0
    0.4870    1.3006    0.0000 C   0  0  0  0  0  0  0  0  0  8  0  0
    1.2309    2.6032    0.0000 C   0  0  0  0  0  0  0  0  0  9  0  0
    0.4748    3.8987    0.0000 O   0  0  0  0  0  0  0  0  0 10  0  0
    2.7309    2.6102    0.0000 O   0  0  0  0  0  0  0  0  0 11  0  0
    2.9041   -2.3253    0.0000 H   0  0  0  0  0  0  0  0  0  0  0  0
    7.2117   -0.2787    0.0000 O   0  0  0  0  0  0  0  0  0  0  0  0
    7.3755   -1.7697    0.0000 C   0  0  1  0  0  0  0  0  0  0  0  0
    6.0081   -2.3862    0.0000 C   0  0  0  0  0  0  0  0  0  0  0  0
    8.6781   -2.5136    0.0000 C   0  0  0  0  0  0  0  0  0  0  0  0
    9.9806   -3.2575    0.0000 C   0  0  0  0  0  0  0  0  0  0  0  0
    9.4220   -1.2110    0.0000 C   0  0  0  0  0  0  0  0  0  0  0  0
    7.9342   -3.8161    0.0000 O   0  0  0  0  0  0  0  0  0  0  0  0
   12.4746    3.9551    0.0000 C   0  0  0  0  0  0  0  0  0  0  0  0
   11.7185    5.2506    0.0000 C   0  0  0  0  0  0  0  0  0  0  0  0
   10.2186    5.2436    0.0000 C   0  0  0  0  0  0  0  0  0  0  0  0
    9.4625    6.5391    0.0000 C   0  0  0  0  0  0  0  0  0  0  0  0
    9.4747    3.9410    0.0000 C   0  0  0  0  0  0  0  0  0  0  0  0
   10.2308    2.6455    0.0000 O   0  0  0  0  0  0  0  0  0  0  0  0
    7.9747    3.9340    0.0000 O   0  0  0  0  0  0  0  0  0  0  0  0
    7.2308    2.6314    0.0000 C   0  0  0  0  0  0  0  0  0  0  0  0
    5.7308    2.6244    0.0000 C   0  0  0  0  0  0  0  0  0  0  0  0
    9.2824    2.0920    0.0000 O   0  0  0  0  0  0  0  0  0  0  0  0
    7.9869    1.3359    0.0000 C   0  0  0  0  0  0  0  0  0  0  0  0
    8.7430    0.0404    0.0000 C   0  0  0  0  0  0  0  0  0  0  0  0
    6.6914    0.5798    0.0000 C   0  0  0  0  0  0  0  0  0  0  0  0
    4.9747    3.9198    0.0000 O   0  0  0  0  0  0  0  0  0  0  0  0
    5.7186    5.2224    0.0000 C   0  0  0  0  0  0  0  0  0  0  0  0
    7.2186    5.2295    0.0000 O   0  0  0  0  0  0  0  0  0  0  0  0
    4.9625    6.5179    0.0000 C   0  0  0  0  0  0  0  0  0  0  0  0
   -1.0130    1.2936    0.0000 C   0  0  0  0  0  0  0  0  0  0  0  0
   -1.0059   -0.2064    0.0000 C   0  0  0  0  0  0  0  0  0  0  0  0
   -1.0200    2.7936    0.0000 C   0  0  0  0  0  0  0  0  0  0  0  0
   -2.5130    1.2865    0.0000 C   0  0  0  0  0  0  0  0  0  0  0  0
   -3.2569   -0.0160    0.0000 C   0  0  0  0  0  0  0  0  0  0  0  0
    0.6480   -1.0369    0.0000 H   0  0  0  0  0  0  0  0  0  0  0  0
  1  2  2  0  0  0  0
  1  6  1  0  0  0  0
  2  3  1  0  0  0  0
  3  4  2  0  0  0  0
  4  5  1  0  0  0  0
  5  6  2  0  0  0  0
  5 11  1  0  0  0  0
  6  7  1  0  0  0  0
  7  8  2  0  0  0  0
  8  9  1  0  0  0  0
  9 10  2  0  0  0  0
  9 11  1  0  0  0  0
  1 12  1  0  0  0  0
 13 14  1  0  0  0  0
 14 15  1  0  0  0  0
 14 16  1  6  0  0  0
 16 17  1  0  0  0  0
 16 18  1  0  0  0  0
 16 19  1  0  0  0  0
  2 15  1  0  0  0  0
  3 13  1  0  0  0  0
 20 21  1  0  0  0  0
 21 22  2  0  0  0  0
 22 23  1  0  0  0  0
 22 24  1  0  0  0  0
 24 25  2  0  0  0  0
 24 26  1  0  0  0  0
 26 27  1  0  0  0  0
 27 28  1  0  0  0  0
 27 30  1  0  0  0  0
 28 33  1  0  0  0  0
 29 30  1  0  0  0  0
 30 31  1  0  0  0  0
 30 32  1  0  0  0  0
 33 34  1  0  0  0  0
 34 35  2  0  0  0  0
 34 36  1  0  0  0  0
  4 28  1  0  0  0  0
 37 38  1  0  0  0  0
 37 39  1  0  0  0  0
 37 40  1  0  0  0  0
 40 41  2  0  0  0  0
  8 37  1  0  0  0  0
  7 42  1  0  0  0  0
M  END
> <score_Kier1>
0.517766

$$$$
suggested molecule #620
 MOE2019            2D

 42 44  0  0  1  0  0  0  0  0999 V2000
    3.4992   -1.2833    0.0000 C   0  0  0  0  0  0  0  0  0  1  0  0
    4.9992   -1.2762    0.0000 C   0  0  0  0  0  0  0  0  0  2  0  0
    5.7430    0.0263    0.0000 C   0  0  0  0  0  0  0  0  0  3  0  0
    4.9869    1.3218    0.0000 C   0  0  0  0  0  0  0  0  0  4  0  0
    3.4870    1.3147    0.0000 C   0  0  0  0  0  0  0  0  0  5  0  0
    2.7431    0.0122    0.0000 C   0  0  0  0  0  0  0  0  0  6  0  0
    1.2431    0.0051    0.0000 C   0  0  0  0  0  0  0  0  0  7  0  0
    0.4870    1.3006    0.0000 C   0  0  0  0  0  0  0  0  0  8  0  0
    1.2309    2.6032    0.0000 C   0  0  0  0  0  0  0  0  0  9  0  0
    0.4748    3.8987    0.0000 O   0  0  0  0  0  0  0  0  0 10  0  0
    2.7309    2.6102    0.0000 O   0  0  0  0  0  0  0  0  0 11  0  0
    2.9041   -2.3253    0.0000 H   0  0  0  0  0  0  0  0  0  0  0  0
    7.2117   -0.2787    0.0000 O   0  0  0  0  0  0  0  0  0  0  0  0
    7.3755   -1.7697    0.0000 C   0  0  1  0  0  0  0  0  0  0  0  0
    6.0081   -2.3862    0.0000 C   0  0  0  0  0  0  0  0  0  0  0  0
    8.6781   -2.5136    0.0000 C   0  0  0  0  0  0  0  0  0  0  0  0
    9.9806   -3.2575    0.0000 C   0  0  0  0  0  0  0  0  0  0  0  0
    9.4220   -1.2110    0.0000 C   0  0  0  0  0  0  0  0  0  0  0  0
    7.9342   -3.8161    0.0000 O   0  0  0  0  0  0  0  0  0  0  0  0
   12.4746    3.9551    0.0000 C   0  0  0  0  0  0  0  0  0  0  0  0
   11.7185    5.2506    0.0000 C   0  0  0  0  0  0  0  0  0  0  0  0
   10.2186    5.2436    0.0000 C   0  0  0  0  0  0  0  0  0  0  0  0
    9.4625    6.5391    0.0000 C   0  0  0  0  0  0  0  0  0  0  0  0
    9.4747    3.9410    0.0000 C   0  0  0  0  0  0  0  0  0  0  0  0
   10.2308    2.6455    0.0000 O   0  0  0  0  0  0  0  0  0  0  0  0
    7.9747    3.9340    0.0000 O   0  0  0  0  0  0  0  0  0  0  0  0
    7.2308    2.6314    0.0000 C   0  0  0  0  0  0  0  0  0  0  0  0
    5.7308    2.6244    0.0000 C   0  0  0  0  0  0  0  0  0  0  0  0
    9.2824    2.0920    0.0000 O   0  0  0  0  0  0  0  0  0  0  0  0
    7.9869    1.3359    0.0000 C   0  0  0  0  0  0  0  0  0  0  0  0
    8.7430    0.0404    0.0000 C   0  0  0  0  0  0  0  0  0  0  0  0
    6.6914    0.5798    0.0000 C   0  0  0  0  0  0  0  0  0  0  0  0
    4.9747    3.9198    0.0000 O   0  0  0  0  0  0  0  0  0  0  0  0
    5.7186    5.2224    0.0000 C   0  0  0  0  0  0  0  0  0  0  0  0
    7.2186    5.2295    0.0000 O   0  0  0  0  0  0  0  0  0  0  0  0
    4.9625    6.5179    0.0000 C   0  0  0  0  0  0  0  0  0  0  0  0
   -1.0130    1.2936    0.0000 C   0  0  0  0  0  0  0  0  0  0  0  0
   -1.0059   -0.2064    0.0000 C   0  0  0  0  0  0  0  0  0  0  0  0
   -1.0200    2.7936    0.0000 C   0  0  0  0  0  0  0  0  0  0  0  0
   -2.5130    1.2865    0.0000 C   0  0  0  0  0  0  0  0  0  0  0  0
   -3.2569   -0.0160    0.0000 C   0  0  0  0  0  0  0  0  0  0  0  0
    0.6480   -1.0369    0.0000 H   0  0  0  0  0  0  0  0  0  0  0  0
  1  2  2  0  0  0  0
  1  6  1  0  0  0  0
  2  3  1  0  0  0  0
  3  4  2  0  0  0  0
  4  5  1  0  0  0  0
  5  6  2  0  0  0  0
  5 11  1  0  0  0  0
  6  7  1  0  0  0  0
  7  8  2  0  0  0  0
  8  9  1  0  0  0  0
  9 10  2  0  0  0  0
  9 11  1  0  0  0  0
  1 12  1  0  0  0  0
 13 14  1  0  0  0  0
 14 15  1  0  0  0  0
 14 16  1  6  0  0  0
 16 17  1  0  0  0  0
 16 18  1  0  0  0  0
 16 19  1  0  0  0  0
  2 15  1  0  0  0  0
  3 13  1  0  0  0  0
 20 21  1  0  0  0  0
 21 22  2  0  0  0  0
 22 23  1  0  0  0  0
 22 24  1  0  0  0  0
 24 25  2  0  0  0  0
 24 26  1  0  0  0  0
 26 27  1  0  0  0  0
 27 28  1  0  0  0  0
 27 30  1  0  0  0  0
 28 33  1  0  0  0  0
 29 30  1  0  0  0  0
 30 31  1  0  0  0  0
 30 32  1  0  0  0  0
 33 34  1  0  0  0  0
 34 35  2  0  0  0  0
 34 36  1  0  0  0  0
  4 28  1  0  0  0  0
 37 38  1  0  0  0  0
 37 39  1  0  0  0  0
 37 40  1  0  0  0  0
 40 41  2  0  0  0  0
  8 37  1  0  0  0  0
  7 42  1  0  0  0  0
M  END
> <score_Kier2>
0.516578

$$$$
suggested molecule #621
 MOE2019            2D

 42 44  0  0  1  0  0  0  0  0999 V2000
    3.4992   -1.2833    0.0000 C   0  0  0  0  0  0  0  0  0  1  0  0
    4.9992   -1.2762    0.0000 C   0  0  0  0  0  0  0  0  0  2  0  0
    5.7430    0.0263    0.0000 C   0  0  0  0  0  0  0  0  0  3  0  0
    4.9869    1.3218    0.0000 C   0  0  0  0  0  0  0  0  0  4  0  0
    3.4870    1.3147    0.0000 C   0  0  0  0  0  0  0  0  0  5  0  0
    2.7431    0.0122    0.0000 C   0  0  0  0  0  0  0  0  0  6  0  0
    1.2431    0.0051    0.0000 C   0  0  0  0  0  0  0  0  0  7  0  0
    0.4870    1.3006    0.0000 C   0  0  0  0  0  0  0  0  0  8  0  0
    1.2309    2.6032    0.0000 C   0  0  0  0  0  0  0  0  0  9  0  0
    0.4748    3.8987    0.0000 O   0  0  0  0  0  0  0  0  0 10  0  0
    2.7309    2.6102    0.0000 O   0  0  0  0  0  0  0  0  0 11  0  0
    2.9041   -2.3253    0.0000 H   0  0  0  0  0  0  0  0  0  0  0  0
    7.2117   -0.2787    0.0000 O   0  0  0  0  0  0  0  0  0  0  0  0
    7.3755   -1.7697    0.0000 C   0  0  1  0  0  0  0  0  0  0  0  0
    6.0081   -2.3862    0.0000 C   0  0  0  0  0  0  0  0  0  0  0  0
    8.6781   -2.5136    0.0000 C   0  0  0  0  0  0  0  0  0  0  0  0
    9.9806   -3.2575    0.0000 C   0  0  0  0  0  0  0  0  0  0  0  0
    9.4220   -1.2110    0.0000 C   0  0  0  0  0  0  0  0  0  0  0  0
    7.9342   -3.8161    0.0000 O   0  0  0  0  0  0  0  0  0  0  0  0
   12.4746    3.9551    0.0000 C   0  0  0  0  0  0  0  0  0  0  0  0
   11.7185    5.2506    0.0000 C   0  0  0  0  0  0  0  0  0  0  0  0
   10.2186    5.2436    0.0000 C   0  0  0  0  0  0  0  0  0  0  0  0
    9.4625    6.5391    0.0000 C   0  0  0  0  0  0  0  0  0  0  0  0
    9.4747    3.9410    0.0000 C   0  0  0  0  0  0  0  0  0  0  0  0
   10.2308    2.6455    0.0000 O   0  0  0  0  0  0  0  0  0  0  0  0
    7.9747    3.9340    0.0000 O   0  0  0  0  0  0  0  0  0  0  0  0
    7.2308    2.6314    0.0000 C   0  0  0  0  0  0  0  0  0  0  0  0
    5.7308    2.6244    0.0000 C   0  0  0  0  0  0  0  0  0  0  0  0
    9.2824    2.0920    0.0000 O   0  0  0  0  0  0  0  0  0  0  0  0
    7.9869    1.3359    0.0000 C   0  0  0  0  0  0  0  0  0  0  0  0
    8.7430    0.0404    0.0000 C   0  0  0  0  0  0  0  0  0  0  0  0
    6.6914    0.5798    0.0000 C   0  0  0  0  0  0  0  0  0  0  0  0
    4.9747    3.9198    0.0000 O   0  0  0  0  0  0  0  0  0  0  0  0
    5.7186    5.2224    0.0000 C   0  0  0  0  0  0  0  0  0  0  0  0
    7.2186    5.2295    0.0000 O   0  0  0  0  0  0  0  0  0  0  0  0
    4.9625    6.5179    0.0000 C   0  0  0  0  0  0  0  0  0  0  0  0
   -1.0130    1.2936    0.0000 C   0  0  0  0  0  0  0  0  0  0  0  0
   -1.0059   -0.2064    0.0000 C   0  0  0  0  0  0  0  0  0  0  0  0
   -1.0200    2.7936    0.0000 C   0  0  0  0  0  0  0  0  0  0  0  0
   -2.5130    1.2865    0.0000 C   0  0  0  0  0  0  0  0  0  0  0  0
   -3.2569   -0.0160    0.0000 C   0  0  0  0  0  0  0  0  0  0  0  0
    0.6480   -1.0369    0.0000 H   0  0  0  0  0  0  0  0  0  0  0  0
  1  2  2  0  0  0  0
  1  6  1  0  0  0  0
  2  3  1  0  0  0  0
  3  4  2  0  0  0  0
  4  5  1  0  0  0  0
  5  6  2  0  0  0  0
  5 11  1  0  0  0  0
  6  7  1  0  0  0  0
  7  8  2  0  0  0  0
  8  9  1  0  0  0  0
  9 10  2  0  0  0  0
  9 11  1  0  0  0  0
  1 12  1  0  0  0  0
 13 14  1  0  0  0  0
 14 15  1  0  0  0  0
 14 16  1  6  0  0  0
 16 17  1  0  0  0  0
 16 18  1  0  0  0  0
 16 19  1  0  0  0  0
  2 15  1  0  0  0  0
  3 13  1  0  0  0  0
 20 21  1  0  0  0  0
 21 22  2  0  0  0  0
 22 23  1  0  0  0  0
 22 24  1  0  0  0  0
 24 25  2  0  0  0  0
 24 26  1  0  0  0  0
 26 27  1  0  0  0  0
 27 28  1  0  0  0  0
 27 30  1  0  0  0  0
 28 33  1  0  0  0  0
 29 30  1  0  0  0  0
 30 31  1  0  0  0  0
 30 32  1  0  0  0  0
 33 34  1  0  0  0  0
 34 35  2  0  0  0  0
 34 36  1  0  0  0  0
  4 28  1  0  0  0  0
 37 38  1  0  0  0  0
 37 39  1  0  0  0  0
 37 40  1  0  0  0  0
 40 41  2  0  0  0  0
  8 37  1  0  0  0  0
  7 42  1  0  0  0  0
M  END
> <score_KierA1>
0.517597

$$$$
suggested molecule #622
 MOE2019            2D

 42 44  0  0  1  0  0  0  0  0999 V2000
    3.4992   -1.2833    0.0000 C   0  0  0  0  0  0  0  0  0  1  0  0
    4.9992   -1.2762    0.0000 C   0  0  0  0  0  0  0  0  0  2  0  0
    5.7430    0.0263    0.0000 C   0  0  0  0  0  0  0  0  0  3  0  0
    4.9869    1.3218    0.0000 C   0  0  0  0  0  0  0  0  0  4  0  0
    3.4870    1.3147    0.0000 C   0  0  0  0  0  0  0  0  0  5  0  0
    2.7431    0.0122    0.0000 C   0  0  0  0  0  0  0  0  0  6  0  0
    1.2431    0.0051    0.0000 C   0  0  0  0  0  0  0  0  0  7  0  0
    0.4870    1.3006    0.0000 C   0  0  0  0  0  0  0  0  0  8  0  0
    1.2309    2.6032    0.0000 C   0  0  0  0  0  0  0  0  0  9  0  0
    0.4748    3.8987    0.0000 O   0  0  0  0  0  0  0  0  0 10  0  0
    2.7309    2.6102    0.0000 O   0  0  0  0  0  0  0  0  0 11  0  0
    2.9041   -2.3253    0.0000 H   0  0  0  0  0  0  0  0  0  0  0  0
    7.2117   -0.2787    0.0000 O   0  0  0  0  0  0  0  0  0  0  0  0
    7.3755   -1.7697    0.0000 C   0  0  1  0  0  0  0  0  0  0  0  0
    6.0081   -2.3862    0.0000 C   0  0  0  0  0  0  0  0  0  0  0  0
    8.6781   -2.5136    0.0000 C   0  0  0  0  0  0  0  0  0  0  0  0
    9.9806   -3.2575    0.0000 C   0  0  0  0  0  0  0  0  0  0  0  0
    9.4220   -1.2110    0.0000 C   0  0  0  0  0  0  0  0  0  0  0  0
    7.9342   -3.8161    0.0000 O   0  0  0  0  0  0  0  0  0  0  0  0
   12.4746    3.9551    0.0000 C   0  0  0  0  0  0  0  0  0  0  0  0
   11.7185    5.2506    0.0000 C   0  0  0  0  0  0  0  0  0  0  0  0
   10.2186    5.2436    0.0000 C   0  0  0  0  0  0  0  0  0  0  0  0
    9.4625    6.5391    0.0000 C   0  0  0  0  0  0  0  0  0  0  0  0
    9.4747    3.9410    0.0000 C   0  0  0  0  0  0  0  0  0  0  0  0
   10.2308    2.6455    0.0000 O   0  0  0  0  0  0  0  0  0  0  0  0
    7.9747    3.9340    0.0000 O   0  0  0  0  0  0  0  0  0  0  0  0
    7.2308    2.6314    0.0000 C   0  0  0  0  0  0  0  0  0  0  0  0
    5.7308    2.6244    0.0000 C   0  0  0  0  0  0  0  0  0  0  0  0
    9.2824    2.0920    0.0000 O   0  0  0  0  0  0  0  0  0  0  0  0
    7.9869    1.3359    0.0000 C   0  0  0  0  0  0  0  0  0  0  0  0
    8.7430    0.0404    0.0000 C   0  0  0  0  0  0  0  0  0  0  0  0
    6.6914    0.5798    0.0000 C   0  0  0  0  0  0  0  0  0  0  0  0
    4.9747    3.9198    0.0000 O   0  0  0  0  0  0  0  0  0  0  0  0
    5.7186    5.2224    0.0000 C   0  0  0  0  0  0  0  0  0  0  0  0
    7.2186    5.2295    0.0000 O   0  0  0  0  0  0  0  0  0  0  0  0
    4.9625    6.5179    0.0000 C   0  0  0  0  0  0  0  0  0  0  0  0
   -1.0130    1.2936    0.0000 C   0  0  0  0  0  0  0  0  0  0  0  0
   -1.0059   -0.2064    0.0000 C   0  0  0  0  0  0  0  0  0  0  0  0
   -1.0200    2.7936    0.0000 C   0  0  0  0  0  0  0  0  0  0  0  0
   -2.5130    1.2865    0.0000 C   0  0  0  0  0  0  0  0  0  0  0  0
   -3.2569   -0.0160    0.0000 C   0  0  0  0  0  0  0  0  0  0  0  0
    0.6480   -1.0369    0.0000 H   0  0  0  0  0  0  0  0  0  0  0  0
  1  2  2  0  0  0  0
  1  6  1  0  0  0  0
  2  3  1  0  0  0  0
  3  4  2  0  0  0  0
  4  5  1  0  0  0  0
  5  6  2  0  0  0  0
  5 11  1  0  0  0  0
  6  7  1  0  0  0  0
  7  8  2  0  0  0  0
  8  9  1  0  0  0  0
  9 10  2  0  0  0  0
  9 11  1  0  0  0  0
  1 12  1  0  0  0  0
 13 14  1  0  0  0  0
 14 15  1  0  0  0  0
 14 16  1  6  0  0  0
 16 17  1  0  0  0  0
 16 18  1  0  0  0  0
 16 19  1  0  0  0  0
  2 15  1  0  0  0  0
  3 13  1  0  0  0  0
 20 21  1  0  0  0  0
 21 22  2  0  0  0  0
 22 23  1  0  0  0  0
 22 24  1  0  0  0  0
 24 25  2  0  0  0  0
 24 26  1  0  0  0  0
 26 27  1  0  0  0  0
 27 28  1  0  0  0  0
 27 30  1  0  0  0  0
 28 33  1  0  0  0  0
 29 30  1  0  0  0  0
 30 31  1  0  0  0  0
 30 32  1  0  0  0  0
 33 34  1  0  0  0  0
 34 35  2  0  0  0  0
 34 36  1  0  0  0  0
  4 28  1  0  0  0  0
 37 38  1  0  0  0  0
 37 39  1  0  0  0  0
 37 40  1  0  0  0  0
 40 41  2  0  0  0  0
  8 37  1  0  0  0  0
  7 42  1  0  0  0  0
M  END
> <score_KierA2>
0.516771

$$$$
suggested molecule #623
 MOE2019            2D

 30 32  0  0  1  0  0  0  0  0999 V2000
    3.4992   -1.2833    0.0000 C   0  0  0  0  0  0  0  0  0  1  0  0
    4.9992   -1.2762    0.0000 C   0  0  0  0  0  0  0  0  0  2  0  0
    5.7430    0.0263    0.0000 C   0  0  0  0  0  0  0  0  0  3  0  0
    4.9869    1.3218    0.0000 C   0  0  0  0  0  0  0  0  0  4  0  0
    3.4870    1.3147    0.0000 C   0  0  0  0  0  0  0  0  0  5  0  0
    2.7431    0.0122    0.0000 C   0  0  0  0  0  0  0  0  0  6  0  0
    1.2431    0.0051    0.0000 C   0  0  0  0  0  0  0  0  0  7  0  0
    0.4870    1.3006    0.0000 C   0  0  0  0  0  0  0  0  0  8  0  0
    1.2309    2.6032    0.0000 C   0  0  0  0  0  0  0  0  0  9  0  0
    0.4748    3.8987    0.0000 O   0  0  0  0  0  0  0  0  0 10  0  0
    2.7309    2.6102    0.0000 O   0  0  0  0  0  0  0  0  0 11  0  0
    2.9041   -2.3253    0.0000 H   0  0  0  0  0  0  0  0  0  0  0  0
    7.2117   -0.2787    0.0000 O   0  0  0  0  0  0  0  0  0  0  0  0
    7.3755   -1.7697    0.0000 C   0  0  1  0  0  0  0  0  0  0  0  0
    6.0081   -2.3862    0.0000 C   0  0  0  0  0  0  0  0  0  0  0  0
    8.6781   -2.5136    0.0000 C   0  0  0  0  0  0  0  0  0  0  0  0
    9.4220   -1.2110    0.0000 C   0  0  0  0  0  0  0  0  0  0  0  0
    9.9806   -3.2575    0.0000 C   0  0  0  0  0  0  0  0  0  0  0  0
    7.9342   -3.8161    0.0000 O   0  0  0  0  0  0  0  0  0  0  0  0
    5.7308    2.6244    0.0000 C   0  0  0  0  0  0  0  0  0  0  0  0
    4.4283    3.3682    0.0000 C   0  0  0  0  0  0  0  0  0  0  0  0
    7.0334    1.8805    0.0000 C   0  0  0  0  0  0  0  0  0  0  0  0
    6.4747    3.9269    0.0000 C   0  0  0  0  0  0  0  0  0  0  0  0
    7.9747    3.9340    0.0000 C   0  0  0  0  0  0  0  0  0  0  0  0
   -1.0130    1.2936    0.0000 C   0  0  0  0  0  0  0  0  0  0  0  0
   -1.0059   -0.2064    0.0000 C   0  0  0  0  0  0  0  0  0  0  0  0
   -1.0200    2.7936    0.0000 C   0  0  0  0  0  0  0  0  0  0  0  0
   -2.5130    1.2865    0.0000 C   0  0  0  0  0  0  0  0  0  0  0  0
   -3.2569   -0.0160    0.0000 C   0  0  0  0  0  0  0  0  0  0  0  0
    0.6480   -1.0369    0.0000 H   0  0  0  0  0  0  0  0  0  0  0  0
  1  2  2  0  0  0  0
  1  6  1  0  0  0  0
  2  3  1  0  0  0  0
  3  4  2  0  0  0  0
  4  5  1  0  0  0  0
  5  6  2  0  0  0  0
  5 11  1  0  0  0  0
  6  7  1  0  0  0  0
  7  8  2  0  0  0  0
  8  9  1  0  0  0  0
  9 10  2  0  0  0  0
  9 11  1  0  0  0  0
  1 12  1  0  0  0  0
 13 14  1  0  0  0  0
 14 15  1  0  0  0  0
 14 16  1  6  0  0  0
 16 17  1  0  0  0  0
 16 18  1  0  0  0  0
 16 19  1  0  0  0  0
  2 15  1  0  0  0  0
  3 13  1  0  0  0  0
 20 21  1  0  0  0  0
 20 22  1  0  0  0  0
 20 23  1  0  0  0  0
 23 24  2  0  0  0  0
  4 20  1  0  0  0  0
 25 26  1  0  0  0  0
 25 27  1  0  0  0  0
 25 28  1  0  0  0  0
 28 29  2  0  0  0  0
  8 25  1  0  0  0  0
  7 30  1  0  0  0  0
M  END
> <score_Kier1>
0.517798

$$$$
suggested molecule #624
 MOE2019            2D

 30 32  0  0  1  0  0  0  0  0999 V2000
    3.4992   -1.2833    0.0000 C   0  0  0  0  0  0  0  0  0  1  0  0
    4.9992   -1.2762    0.0000 C   0  0  0  0  0  0  0  0  0  2  0  0
    5.7430    0.0263    0.0000 C   0  0  0  0  0  0  0  0  0  3  0  0
    4.9869    1.3218    0.0000 C   0  0  0  0  0  0  0  0  0  4  0  0
    3.4870    1.3147    0.0000 C   0  0  0  0  0  0  0  0  0  5  0  0
    2.7431    0.0122    0.0000 C   0  0  0  0  0  0  0  0  0  6  0  0
    1.2431    0.0051    0.0000 C   0  0  0  0  0  0  0  0  0  7  0  0
    0.4870    1.3006    0.0000 C   0  0  0  0  0  0  0  0  0  8  0  0
    1.2309    2.6032    0.0000 C   0  0  0  0  0  0  0  0  0  9  0  0
    0.4748    3.8987    0.0000 O   0  0  0  0  0  0  0  0  0 10  0  0
    2.7309    2.6102    0.0000 O   0  0  0  0  0  0  0  0  0 11  0  0
    2.9041   -2.3253    0.0000 H   0  0  0  0  0  0  0  0  0  0  0  0
    7.2117   -0.2787    0.0000 O   0  0  0  0  0  0  0  0  0  0  0  0
    7.3755   -1.7697    0.0000 C   0  0  1  0  0  0  0  0  0  0  0  0
    6.0081   -2.3862    0.0000 C   0  0  0  0  0  0  0  0  0  0  0  0
    8.6781   -2.5136    0.0000 C   0  0  0  0  0  0  0  0  0  0  0  0
    9.4220   -1.2110    0.0000 C   0  0  0  0  0  0  0  0  0  0  0  0
    9.9806   -3.2575    0.0000 C   0  0  0  0  0  0  0  0  0  0  0  0
    7.9342   -3.8161    0.0000 O   0  0  0  0  0  0  0  0  0  0  0  0
    5.7308    2.6244    0.0000 C   0  0  0  0  0  0  0  0  0  0  0  0
    4.4283    3.3682    0.0000 C   0  0  0  0  0  0  0  0  0  0  0  0
    7.0334    1.8805    0.0000 C   0  0  0  0  0  0  0  0  0  0  0  0
    6.4747    3.9269    0.0000 C   0  0  0  0  0  0  0  0  0  0  0  0
    7.9747    3.9340    0.0000 C   0  0  0  0  0  0  0  0  0  0  0  0
   -1.0130    1.2936    0.0000 C   0  0  0  0  0  0  0  0  0  0  0  0
   -1.0059   -0.2064    0.0000 C   0  0  0  0  0  0  0  0  0  0  0  0
   -1.0200    2.7936    0.0000 C   0  0  0  0  0  0  0  0  0  0  0  0
   -2.5130    1.2865    0.0000 C   0  0  0  0  0  0  0  0  0  0  0  0
   -3.2569   -0.0160    0.0000 C   0  0  0  0  0  0  0  0  0  0  0  0
    0.6480   -1.0369    0.0000 H   0  0  0  0  0  0  0  0  0  0  0  0
  1  2  2  0  0  0  0
  1  6  1  0  0  0  0
  2  3  1  0  0  0  0
  3  4  2  0  0  0  0
  4  5  1  0  0  0  0
  5  6  2  0  0  0  0
  5 11  1  0  0  0  0
  6  7  1  0  0  0  0
  7  8  2  0  0  0  0
  8  9  1  0  0  0  0
  9 10  2  0  0  0  0
  9 11  1  0  0  0  0
  1 12  1  0  0  0  0
 13 14  1  0  0  0  0
 14 15  1  0  0  0  0
 14 16  1  6  0  0  0
 16 17  1  0  0  0  0
 16 18  1  0  0  0  0
 16 19  1  0  0  0  0
  2 15  1  0  0  0  0
  3 13  1  0  0  0  0
 20 21  1  0  0  0  0
 20 22  1  0  0  0  0
 20 23  1  0  0  0  0
 23 24  2  0  0  0  0
  4 20  1  0  0  0  0
 25 26  1  0  0  0  0
 25 27  1  0  0  0  0
 25 28  1  0  0  0  0
 28 29  2  0  0  0  0
  8 25  1  0  0  0  0
  7 30  1  0  0  0  0
M  END
> <score_Kier2>
0.516624

$$$$
suggested molecule #625
 MOE2019            2D

 30 32  0  0  1  0  0  0  0  0999 V2000
    3.4992   -1.2833    0.0000 C   0  0  0  0  0  0  0  0  0  1  0  0
    4.9992   -1.2762    0.0000 C   0  0  0  0  0  0  0  0  0  2  0  0
    5.7430    0.0263    0.0000 C   0  0  0  0  0  0  0  0  0  3  0  0
    4.9869    1.3218    0.0000 C   0  0  0  0  0  0  0  0  0  4  0  0
    3.4870    1.3147    0.0000 C   0  0  0  0  0  0  0  0  0  5  0  0
    2.7431    0.0122    0.0000 C   0  0  0  0  0  0  0  0  0  6  0  0
    1.2431    0.0051    0.0000 C   0  0  0  0  0  0  0  0  0  7  0  0
    0.4870    1.3006    0.0000 C   0  0  0  0  0  0  0  0  0  8  0  0
    1.2309    2.6032    0.0000 C   0  0  0  0  0  0  0  0  0  9  0  0
    0.4748    3.8987    0.0000 O   0  0  0  0  0  0  0  0  0 10  0  0
    2.7309    2.6102    0.0000 O   0  0  0  0  0  0  0  0  0 11  0  0
    2.9041   -2.3253    0.0000 H   0  0  0  0  0  0  0  0  0  0  0  0
    7.2117   -0.2787    0.0000 O   0  0  0  0  0  0  0  0  0  0  0  0
    7.3755   -1.7697    0.0000 C   0  0  1  0  0  0  0  0  0  0  0  0
    6.0081   -2.3862    0.0000 C   0  0  0  0  0  0  0  0  0  0  0  0
    8.6781   -2.5136    0.0000 C   0  0  0  0  0  0  0  0  0  0  0  0
    9.4220   -1.2110    0.0000 C   0  0  0  0  0  0  0  0  0  0  0  0
    9.9806   -3.2575    0.0000 C   0  0  0  0  0  0  0  0  0  0  0  0
    7.9342   -3.8161    0.0000 O   0  0  0  0  0  0  0  0  0  0  0  0
    5.7308    2.6244    0.0000 C   0  0  0  0  0  0  0  0  0  0  0  0
    4.4283    3.3682    0.0000 C   0  0  0  0  0  0  0  0  0  0  0  0
    7.0334    1.8805    0.0000 C   0  0  0  0  0  0  0  0  0  0  0  0
    6.4747    3.9269    0.0000 C   0  0  0  0  0  0  0  0  0  0  0  0
    7.9747    3.9340    0.0000 C   0  0  0  0  0  0  0  0  0  0  0  0
   -1.0130    1.2936    0.0000 C   0  0  0  0  0  0  0  0  0  0  0  0
   -1.0059   -0.2064    0.0000 C   0  0  0  0  0  0  0  0  0  0  0  0
   -1.0200    2.7936    0.0000 C   0  0  0  0  0  0  0  0  0  0  0  0
   -2.5130    1.2865    0.0000 C   0  0  0  0  0  0  0  0  0  0  0  0
   -3.2569   -0.0160    0.0000 C   0  0  0  0  0  0  0  0  0  0  0  0
    0.6480   -1.0369    0.0000 H   0  0  0  0  0  0  0  0  0  0  0  0
  1  2  2  0  0  0  0
  1  6  1  0  0  0  0
  2  3  1  0  0  0  0
  3  4  2  0  0  0  0
  4  5  1  0  0  0  0
  5  6  2  0  0  0  0
  5 11  1  0  0  0  0
  6  7  1  0  0  0  0
  7  8  2  0  0  0  0
  8  9  1  0  0  0  0
  9 10  2  0  0  0  0
  9 11  1  0  0  0  0
  1 12  1  0  0  0  0
 13 14  1  0  0  0  0
 14 15  1  0  0  0  0
 14 16  1  6  0  0  0
 16 17  1  0  0  0  0
 16 18  1  0  0  0  0
 16 19  1  0  0  0  0
  2 15  1  0  0  0  0
  3 13  1  0  0  0  0
 20 21  1  0  0  0  0
 20 22  1  0  0  0  0
 20 23  1  0  0  0  0
 23 24  2  0  0  0  0
  4 20  1  0  0  0  0
 25 26  1  0  0  0  0
 25 27  1  0  0  0  0
 25 28  1  0  0  0  0
 28 29  2  0  0  0  0
  8 25  1  0  0  0  0
  7 30  1  0  0  0  0
M  END
> <score_KierA1>
0.517629

$$$$
suggested molecule #626
 MOE2019            2D

 30 32  0  0  1  0  0  0  0  0999 V2000
    3.4992   -1.2833    0.0000 C   0  0  0  0  0  0  0  0  0  1  0  0
    4.9992   -1.2762    0.0000 C   0  0  0  0  0  0  0  0  0  2  0  0
    5.7430    0.0263    0.0000 C   0  0  0  0  0  0  0  0  0  3  0  0
    4.9869    1.3218    0.0000 C   0  0  0  0  0  0  0  0  0  4  0  0
    3.4870    1.3147    0.0000 C   0  0  0  0  0  0  0  0  0  5  0  0
    2.7431    0.0122    0.0000 C   0  0  0  0  0  0  0  0  0  6  0  0
    1.2431    0.0051    0.0000 C   0  0  0  0  0  0  0  0  0  7  0  0
    0.4870    1.3006    0.0000 C   0  0  0  0  0  0  0  0  0  8  0  0
    1.2309    2.6032    0.0000 C   0  0  0  0  0  0  0  0  0  9  0  0
    0.4748    3.8987    0.0000 O   0  0  0  0  0  0  0  0  0 10  0  0
    2.7309    2.6102    0.0000 O   0  0  0  0  0  0  0  0  0 11  0  0
    2.9041   -2.3253    0.0000 H   0  0  0  0  0  0  0  0  0  0  0  0
    7.2117   -0.2787    0.0000 O   0  0  0  0  0  0  0  0  0  0  0  0
    7.3755   -1.7697    0.0000 C   0  0  1  0  0  0  0  0  0  0  0  0
    6.0081   -2.3862    0.0000 C   0  0  0  0  0  0  0  0  0  0  0  0
    8.6781   -2.5136    0.0000 C   0  0  0  0  0  0  0  0  0  0  0  0
    9.4220   -1.2110    0.0000 C   0  0  0  0  0  0  0  0  0  0  0  0
    9.9806   -3.2575    0.0000 C   0  0  0  0  0  0  0  0  0  0  0  0
    7.9342   -3.8161    0.0000 O   0  0  0  0  0  0  0  0  0  0  0  0
    5.7308    2.6244    0.0000 C   0  0  0  0  0  0  0  0  0  0  0  0
    4.4283    3.3682    0.0000 C   0  0  0  0  0  0  0  0  0  0  0  0
    7.0334    1.8805    0.0000 C   0  0  0  0  0  0  0  0  0  0  0  0
    6.4747    3.9269    0.0000 C   0  0  0  0  0  0  0  0  0  0  0  0
    7.9747    3.9340    0.0000 C   0  0  0  0  0  0  0  0  0  0  0  0
   -1.0130    1.2936    0.0000 C   0  0  0  0  0  0  0  0  0  0  0  0
   -1.0059   -0.2064    0.0000 C   0  0  0  0  0  0  0  0  0  0  0  0
   -1.0200    2.7936    0.0000 C   0  0  0  0  0  0  0  0  0  0  0  0
   -2.5130    1.2865    0.0000 C   0  0  0  0  0  0  0  0  0  0  0  0
   -3.2569   -0.0160    0.0000 C   0  0  0  0  0  0  0  0  0  0  0  0
    0.6480   -1.0369    0.0000 H   0  0  0  0  0  0  0  0  0  0  0  0
  1  2  2  0  0  0  0
  1  6  1  0  0  0  0
  2  3  1  0  0  0  0
  3  4  2  0  0  0  0
  4  5  1  0  0  0  0
  5  6  2  0  0  0  0
  5 11  1  0  0  0  0
  6  7  1  0  0  0  0
  7  8  2  0  0  0  0
  8  9  1  0  0  0  0
  9 10  2  0  0  0  0
  9 11  1  0  0  0  0
  1 12  1  0  0  0  0
 13 14  1  0  0  0  0
 14 15  1  0  0  0  0
 14 16  1  6  0  0  0
 16 17  1  0  0  0  0
 16 18  1  0  0  0  0
 16 19  1  0  0  0  0
  2 15  1  0  0  0  0
  3 13  1  0  0  0  0
 20 21  1  0  0  0  0
 20 22  1  0  0  0  0
 20 23  1  0  0  0  0
 23 24  2  0  0  0  0
  4 20  1  0  0  0  0
 25 26  1  0  0  0  0
 25 27  1  0  0  0  0
 25 28  1  0  0  0  0
 28 29  2  0  0  0  0
  8 25  1  0  0  0  0
  7 30  1  0  0  0  0
M  END
> <score_KierA2>
0.516817

$$$$
suggested molecule #627
 MOE2019            2D

 30 32  0  0  1  0  0  0  0  0999 V2000
    3.4992   -1.2833    0.0000 C   0  0  0  0  0  0  0  0  0  1  0  0
    4.9992   -1.2762    0.0000 C   0  0  0  0  0  0  0  0  0  2  0  0
    5.7430    0.0263    0.0000 C   0  0  0  0  0  0  0  0  0  3  0  0
    4.9869    1.3218    0.0000 C   0  0  0  0  0  0  0  0  0  4  0  0
    3.4870    1.3147    0.0000 C   0  0  0  0  0  0  0  0  0  5  0  0
    2.7431    0.0122    0.0000 C   0  0  0  0  0  0  0  0  0  6  0  0
    1.2431    0.0051    0.0000 C   0  0  0  0  0  0  0  0  0  7  0  0
    0.4870    1.3006    0.0000 C   0  0  0  0  0  0  0  0  0  8  0  0
    1.2309    2.6032    0.0000 C   0  0  0  0  0  0  0  0  0  9  0  0
    0.4748    3.8987    0.0000 O   0  0  0  0  0  0  0  0  0 10  0  0
    2.7309    2.6102    0.0000 O   0  0  0  0  0  0  0  0  0 11  0  0
    2.9041   -2.3253    0.0000 H   0  0  0  0  0  0  0  0  0  0  0  0
    7.2117   -0.2787    0.0000 O   0  0  0  0  0  0  0  0  0  0  0  0
    7.3755   -1.7697    0.0000 C   0  0  1  0  0  0  0  0  0  0  0  0
    6.0081   -2.3862    0.0000 C   0  0  0  0  0  0  0  0  0  0  0  0
    8.6781   -2.5136    0.0000 C   0  0  0  0  0  0  0  0  0  0  0  0
    9.4220   -1.2110    0.0000 C   0  0  0  0  0  0  0  0  0  0  0  0
    9.9806   -3.2575    0.0000 C   0  0  0  0  0  0  0  0  0  0  0  0
    7.9342   -3.8161    0.0000 O   0  0  0  0  0  0  0  0  0  0  0  0
    5.7308    2.6244    0.0000 C   0  0  0  0  0  0  0  0  0  0  0  0
    4.4283    3.3682    0.0000 C   0  0  0  0  0  0  0  0  0  0  0  0
    7.0334    1.8805    0.0000 C   0  0  0  0  0  0  0  0  0  0  0  0
    6.4747    3.9269    0.0000 C   0  0  0  0  0  0  0  0  0  0  0  0
    7.9747    3.9340    0.0000 C   0  0  0  0  0  0  0  0  0  0  0  0
   -1.0130    1.2936    0.0000 C   0  0  0  0  0  0  0  0  0  0  0  0
   -1.0059   -0.2064    0.0000 C   0  0  0  0  0  0  0  0  0  0  0  0
   -1.0200    2.7936    0.0000 C   0  0  0  0  0  0  0  0  0  0  0  0
   -2.5130    1.2865    0.0000 C   0  0  0  0  0  0  0  0  0  0  0  0
   -3.2569   -0.0160    0.0000 C   0  0  0  0  0  0  0  0  0  0  0  0
    0.6480   -1.0369    0.0000 H   0  0  0  0  0  0  0  0  0  0  0  0
  1  2  2  0  0  0  0
  1  6  1  0  0  0  0
  2  3  1  0  0  0  0
  3  4  2  0  0  0  0
  4  5  1  0  0  0  0
  5  6  2  0  0  0  0
  5 11  1  0  0  0  0
  6  7  1  0  0  0  0
  7  8  2  0  0  0  0
  8  9  1  0  0  0  0
  9 10  2  0  0  0  0
  9 11  1  0  0  0  0
  1 12  1  0  0  0  0
 13 14  1  0  0  0  0
 14 15  1  0  0  0  0
 14 16  1  6  0  0  0
 16 17  1  0  0  0  0
 16 18  1  0  0  0  0
 16 19  1  0  0  0  0
  2 15  1  0  0  0  0
  3 13  1  0  0  0  0
 20 21  1  0  0  0  0
 20 22  1  0  0  0  0
 20 23  1  0  0  0  0
 23 24  2  0  0  0  0
  4 20  1  0  0  0  0
 25 26  1  0  0  0  0
 25 27  1  0  0  0  0
 25 28  1  0  0  0  0
 28 29  2  0  0  0  0
  8 25  1  0  0  0  0
  7 30  1  0  0  0  0
M  END
> <score_KierFlex>
0.516283

$$$$
suggested molecule #628
 MOE2019            2D

 42 44  0  0  1  0  0  0  0  0999 V2000
    3.4992   -1.2833    0.0000 C   0  0  0  0  0  0  0  0  0  1  0  0
    4.9992   -1.2762    0.0000 C   0  0  0  0  0  0  0  0  0  2  0  0
    5.7430    0.0263    0.0000 C   0  0  0  0  0  0  0  0  0  3  0  0
    4.9869    1.3218    0.0000 C   0  0  0  0  0  0  0  0  0  4  0  0
    3.4870    1.3147    0.0000 C   0  0  0  0  0  0  0  0  0  5  0  0
    2.7431    0.0122    0.0000 C   0  0  0  0  0  0  0  0  0  6  0  0
    1.2431    0.0051    0.0000 C   0  0  0  0  0  0  0  0  0  7  0  0
    0.4870    1.3006    0.0000 C   0  0  0  0  0  0  0  0  0  8  0  0
    1.2309    2.6032    0.0000 C   0  0  0  0  0  0  0  0  0  9  0  0
    0.4748    3.8987    0.0000 O   0  0  0  0  0  0  0  0  0 10  0  0
    2.7309    2.6102    0.0000 O   0  0  0  0  0  0  0  0  0 11  0  0
    2.9041   -2.3253    0.0000 H   0  0  0  0  0  0  0  0  0  0  0  0
    7.2117   -0.2787    0.0000 O   0  0  0  0  0  0  0  0  0  0  0  0
    7.3755   -1.7697    0.0000 C   0  0  1  0  0  0  0  0  0  0  0  0
    6.0081   -2.3862    0.0000 C   0  0  0  0  0  0  0  0  0  0  0  0
    8.6781   -2.5136    0.0000 C   0  0  0  0  0  0  0  0  0  0  0  0
    9.9806   -3.2575    0.0000 C   0  0  0  0  0  0  0  0  0  0  0  0
    7.9342   -3.8161    0.0000 C   0  0  0  0  0  0  0  0  0  0  0  0
    9.4220   -1.2110    0.0000 O   0  0  0  0  0  0  0  0  0  0  0  0
   10.2063    7.8416    0.0000 C   0  0  0  0  0  0  0  0  0  0  0  0
    9.4625    6.5391    0.0000 C   0  0  0  0  0  0  0  0  0  0  0  0
   10.2186    5.2436    0.0000 C   0  0  0  0  0  0  0  0  0  0  0  0
   11.7185    5.2506    0.0000 C   0  0  0  0  0  0  0  0  0  0  0  0
    9.4747    3.9410    0.0000 C   0  0  0  0  0  0  0  0  0  0  0  0
   10.2308    2.6455    0.0000 O   0  0  0  0  0  0  0  0  0  0  0  0
    7.9747    3.9340    0.0000 O   0  0  0  0  0  0  0  0  0  0  0  0
    7.2308    2.6314    0.0000 C   0  0  2  0  0  0  0  0  0  0  0  0
    5.7308    2.6244    0.0000 C   0  0  0  0  0  0  0  0  0  0  0  0
    6.6914    0.5798    0.0000 O   0  0  0  0  0  0  0  0  0  0  0  0
    7.9869    1.3359    0.0000 C   0  0  0  0  0  0  0  0  0  0  0  0
    9.2824    2.0920    0.0000 C   0  0  0  0  0  0  0  0  0  0  0  0
    8.7430    0.0404    0.0000 C   0  0  0  0  0  0  0  0  0  0  0  0
    4.9747    3.9198    0.0000 O   0  0  0  0  0  0  0  0  0  0  0  0
    5.7186    5.2224    0.0000 C   0  0  0  0  0  0  0  0  0  0  0  0
    7.2186    5.2295    0.0000 O   0  0  0  0  0  0  0  0  0  0  0  0
    4.9625    6.5179    0.0000 C   0  0  0  0  0  0  0  0  0  0  0  0
   -1.0130    1.2936    0.0000 C   0  0  0  0  0  0  0  0  0  0  0  0
   -1.0059   -0.2064    0.0000 C   0  0  0  0  0  0  0  0  0  0  0  0
   -1.0200    2.7936    0.0000 C   0  0  0  0  0  0  0  0  0  0  0  0
   -2.5130    1.2865    0.0000 C   0  0  0  0  0  0  0  0  0  0  0  0
   -3.2569   -0.0160    0.0000 C   0  0  0  0  0  0  0  0  0  0  0  0
    0.6480   -1.0369    0.0000 H   0  0  0  0  0  0  0  0  0  0  0  0
  1  2  2  0  0  0  0
  1  6  1  0  0  0  0
  2  3  1  0  0  0  0
  3  4  2  0  0  0  0
  4  5  1  0  0  0  0
  5  6  2  0  0  0  0
  5 11  1  0  0  0  0
  6  7  1  0  0  0  0
  7  8  2  0  0  0  0
  8  9  1  0  0  0  0
  9 10  2  0  0  0  0
  9 11  1  0  0  0  0
  1 12  1  0  0  0  0
 13 14  1  0  0  0  0
 14 15  1  0  0  0  0
 14 16  1  6  0  0  0
 16 17  1  0  0  0  0
 16 18  1  0  0  0  0
 16 19  1  0  0  0  0
  2 15  1  0  0  0  0
  3 13  1  0  0  0  0
 20 21  1  0  0  0  0
 21 22  1  0  0  0  0
 22 23  1  0  0  0  0
 22 24  1  0  0  0  0
 24 25  2  0  0  0  0
 24 26  1  0  0  0  0
 27 26  1  1  0  0  0
 27 28  1  0  0  0  0
 27 30  1  0  0  0  0
 28 33  1  0  0  0  0
 29 30  1  0  0  0  0
 30 31  1  0  0  0  0
 30 32  1  0  0  0  0
 33 34  1  0  0  0  0
 34 35  2  0  0  0  0
 34 36  1  0  0  0  0
  4 28  1  0  0  0  0
 37 38  1  0  0  0  0
 37 39  1  0  0  0  0
 37 40  1  0  0  0  0
 40 41  2  0  0  0  0
  8 37  1  0  0  0  0
  7 42  1  0  0  0  0
M  END
> <score_Kier1>
0.517766

$$$$
suggested molecule #629
 MOE2019            2D

 42 44  0  0  1  0  0  0  0  0999 V2000
    3.4992   -1.2833    0.0000 C   0  0  0  0  0  0  0  0  0  1  0  0
    4.9992   -1.2762    0.0000 C   0  0  0  0  0  0  0  0  0  2  0  0
    5.7430    0.0263    0.0000 C   0  0  0  0  0  0  0  0  0  3  0  0
    4.9869    1.3218    0.0000 C   0  0  0  0  0  0  0  0  0  4  0  0
    3.4870    1.3147    0.0000 C   0  0  0  0  0  0  0  0  0  5  0  0
    2.7431    0.0122    0.0000 C   0  0  0  0  0  0  0  0  0  6  0  0
    1.2431    0.0051    0.0000 C   0  0  0  0  0  0  0  0  0  7  0  0
    0.4870    1.3006    0.0000 C   0  0  0  0  0  0  0  0  0  8  0  0
    1.2309    2.6032    0.0000 C   0  0  0  0  0  0  0  0  0  9  0  0
    0.4748    3.8987    0.0000 O   0  0  0  0  0  0  0  0  0 10  0  0
    2.7309    2.6102    0.0000 O   0  0  0  0  0  0  0  0  0 11  0  0
    2.9041   -2.3253    0.0000 H   0  0  0  0  0  0  0  0  0  0  0  0
    7.2117   -0.2787    0.0000 O   0  0  0  0  0  0  0  0  0  0  0  0
    7.3755   -1.7697    0.0000 C   0  0  1  0  0  0  0  0  0  0  0  0
    6.0081   -2.3862    0.0000 C   0  0  0  0  0  0  0  0  0  0  0  0
    8.6781   -2.5136    0.0000 C   0  0  0  0  0  0  0  0  0  0  0  0
    9.9806   -3.2575    0.0000 C   0  0  0  0  0  0  0  0  0  0  0  0
    7.9342   -3.8161    0.0000 C   0  0  0  0  0  0  0  0  0  0  0  0
    9.4220   -1.2110    0.0000 O   0  0  0  0  0  0  0  0  0  0  0  0
   10.2063    7.8416    0.0000 C   0  0  0  0  0  0  0  0  0  0  0  0
    9.4625    6.5391    0.0000 C   0  0  0  0  0  0  0  0  0  0  0  0
   10.2186    5.2436    0.0000 C   0  0  0  0  0  0  0  0  0  0  0  0
   11.7185    5.2506    0.0000 C   0  0  0  0  0  0  0  0  0  0  0  0
    9.4747    3.9410    0.0000 C   0  0  0  0  0  0  0  0  0  0  0  0
   10.2308    2.6455    0.0000 O   0  0  0  0  0  0  0  0  0  0  0  0
    7.9747    3.9340    0.0000 O   0  0  0  0  0  0  0  0  0  0  0  0
    7.2308    2.6314    0.0000 C   0  0  2  0  0  0  0  0  0  0  0  0
    5.7308    2.6244    0.0000 C   0  0  0  0  0  0  0  0  0  0  0  0
    6.6914    0.5798    0.0000 O   0  0  0  0  0  0  0  0  0  0  0  0
    7.9869    1.3359    0.0000 C   0  0  0  0  0  0  0  0  0  0  0  0
    9.2824    2.0920    0.0000 C   0  0  0  0  0  0  0  0  0  0  0  0
    8.7430    0.0404    0.0000 C   0  0  0  0  0  0  0  0  0  0  0  0
    4.9747    3.9198    0.0000 O   0  0  0  0  0  0  0  0  0  0  0  0
    5.7186    5.2224    0.0000 C   0  0  0  0  0  0  0  0  0  0  0  0
    7.2186    5.2295    0.0000 O   0  0  0  0  0  0  0  0  0  0  0  0
    4.9625    6.5179    0.0000 C   0  0  0  0  0  0  0  0  0  0  0  0
   -1.0130    1.2936    0.0000 C   0  0  0  0  0  0  0  0  0  0  0  0
   -1.0059   -0.2064    0.0000 C   0  0  0  0  0  0  0  0  0  0  0  0
   -1.0200    2.7936    0.0000 C   0  0  0  0  0  0  0  0  0  0  0  0
   -2.5130    1.2865    0.0000 C   0  0  0  0  0  0  0  0  0  0  0  0
   -3.2569   -0.0160    0.0000 C   0  0  0  0  0  0  0  0  0  0  0  0
    0.6480   -1.0369    0.0000 H   0  0  0  0  0  0  0  0  0  0  0  0
  1  2  2  0  0  0  0
  1  6  1  0  0  0  0
  2  3  1  0  0  0  0
  3  4  2  0  0  0  0
  4  5  1  0  0  0  0
  5  6  2  0  0  0  0
  5 11  1  0  0  0  0
  6  7  1  0  0  0  0
  7  8  2  0  0  0  0
  8  9  1  0  0  0  0
  9 10  2  0  0  0  0
  9 11  1  0  0  0  0
  1 12  1  0  0  0  0
 13 14  1  0  0  0  0
 14 15  1  0  0  0  0
 14 16  1  6  0  0  0
 16 17  1  0  0  0  0
 16 18  1  0  0  0  0
 16 19  1  0  0  0  0
  2 15  1  0  0  0  0
  3 13  1  0  0  0  0
 20 21  1  0  0  0  0
 21 22  1  0  0  0  0
 22 23  1  0  0  0  0
 22 24  1  0  0  0  0
 24 25  2  0  0  0  0
 24 26  1  0  0  0  0
 27 26  1  1  0  0  0
 27 28  1  0  0  0  0
 27 30  1  0  0  0  0
 28 33  1  0  0  0  0
 29 30  1  0  0  0  0
 30 31  1  0  0  0  0
 30 32  1  0  0  0  0
 33 34  1  0  0  0  0
 34 35  2  0  0  0  0
 34 36  1  0  0  0  0
  4 28  1  0  0  0  0
 37 38  1  0  0  0  0
 37 39  1  0  0  0  0
 37 40  1  0  0  0  0
 40 41  2  0  0  0  0
  8 37  1  0  0  0  0
  7 42  1  0  0  0  0
M  END
> <score_Kier2>
0.516578

$$$$
suggested molecule #630
 MOE2019            2D

 42 44  0  0  1  0  0  0  0  0999 V2000
    3.4992   -1.2833    0.0000 C   0  0  0  0  0  0  0  0  0  1  0  0
    4.9992   -1.2762    0.0000 C   0  0  0  0  0  0  0  0  0  2  0  0
    5.7430    0.0263    0.0000 C   0  0  0  0  0  0  0  0  0  3  0  0
    4.9869    1.3218    0.0000 C   0  0  0  0  0  0  0  0  0  4  0  0
    3.4870    1.3147    0.0000 C   0  0  0  0  0  0  0  0  0  5  0  0
    2.7431    0.0122    0.0000 C   0  0  0  0  0  0  0  0  0  6  0  0
    1.2431    0.0051    0.0000 C   0  0  0  0  0  0  0  0  0  7  0  0
    0.4870    1.3006    0.0000 C   0  0  0  0  0  0  0  0  0  8  0  0
    1.2309    2.6032    0.0000 C   0  0  0  0  0  0  0  0  0  9  0  0
    0.4748    3.8987    0.0000 O   0  0  0  0  0  0  0  0  0 10  0  0
    2.7309    2.6102    0.0000 O   0  0  0  0  0  0  0  0  0 11  0  0
    2.9041   -2.3253    0.0000 H   0  0  0  0  0  0  0  0  0  0  0  0
    7.2117   -0.2787    0.0000 O   0  0  0  0  0  0  0  0  0  0  0  0
    7.3755   -1.7697    0.0000 C   0  0  1  0  0  0  0  0  0  0  0  0
    6.0081   -2.3862    0.0000 C   0  0  0  0  0  0  0  0  0  0  0  0
    8.6781   -2.5136    0.0000 C   0  0  0  0  0  0  0  0  0  0  0  0
    9.9806   -3.2575    0.0000 C   0  0  0  0  0  0  0  0  0  0  0  0
    7.9342   -3.8161    0.0000 C   0  0  0  0  0  0  0  0  0  0  0  0
    9.4220   -1.2110    0.0000 O   0  0  0  0  0  0  0  0  0  0  0  0
   10.2063    7.8416    0.0000 C   0  0  0  0  0  0  0  0  0  0  0  0
    9.4625    6.5391    0.0000 C   0  0  0  0  0  0  0  0  0  0  0  0
   10.2186    5.2436    0.0000 C   0  0  0  0  0  0  0  0  0  0  0  0
   11.7185    5.2506    0.0000 C   0  0  0  0  0  0  0  0  0  0  0  0
    9.4747    3.9410    0.0000 C   0  0  0  0  0  0  0  0  0  0  0  0
   10.2308    2.6455    0.0000 O   0  0  0  0  0  0  0  0  0  0  0  0
    7.9747    3.9340    0.0000 O   0  0  0  0  0  0  0  0  0  0  0  0
    7.2308    2.6314    0.0000 C   0  0  2  0  0  0  0  0  0  0  0  0
    5.7308    2.6244    0.0000 C   0  0  0  0  0  0  0  0  0  0  0  0
    6.6914    0.5798    0.0000 O   0  0  0  0  0  0  0  0  0  0  0  0
    7.9869    1.3359    0.0000 C   0  0  0  0  0  0  0  0  0  0  0  0
    9.2824    2.0920    0.0000 C   0  0  0  0  0  0  0  0  0  0  0  0
    8.7430    0.0404    0.0000 C   0  0  0  0  0  0  0  0  0  0  0  0
    4.9747    3.9198    0.0000 O   0  0  0  0  0  0  0  0  0  0  0  0
    5.7186    5.2224    0.0000 C   0  0  0  0  0  0  0  0  0  0  0  0
    7.2186    5.2295    0.0000 O   0  0  0  0  0  0  0  0  0  0  0  0
    4.9625    6.5179    0.0000 C   0  0  0  0  0  0  0  0  0  0  0  0
   -1.0130    1.2936    0.0000 C   0  0  0  0  0  0  0  0  0  0  0  0
   -1.0059   -0.2064    0.0000 C   0  0  0  0  0  0  0  0  0  0  0  0
   -1.0200    2.7936    0.0000 C   0  0  0  0  0  0  0  0  0  0  0  0
   -2.5130    1.2865    0.0000 C   0  0  0  0  0  0  0  0  0  0  0  0
   -3.2569   -0.0160    0.0000 C   0  0  0  0  0  0  0  0  0  0  0  0
    0.6480   -1.0369    0.0000 H   0  0  0  0  0  0  0  0  0  0  0  0
  1  2  2  0  0  0  0
  1  6  1  0  0  0  0
  2  3  1  0  0  0  0
  3  4  2  0  0  0  0
  4  5  1  0  0  0  0
  5  6  2  0  0  0  0
  5 11  1  0  0  0  0
  6  7  1  0  0  0  0
  7  8  2  0  0  0  0
  8  9  1  0  0  0  0
  9 10  2  0  0  0  0
  9 11  1  0  0  0  0
  1 12  1  0  0  0  0
 13 14  1  0  0  0  0
 14 15  1  0  0  0  0
 14 16  1  6  0  0  0
 16 17  1  0  0  0  0
 16 18  1  0  0  0  0
 16 19  1  0  0  0  0
  2 15  1  0  0  0  0
  3 13  1  0  0  0  0
 20 21  1  0  0  0  0
 21 22  1  0  0  0  0
 22 23  1  0  0  0  0
 22 24  1  0  0  0  0
 24 25  2  0  0  0  0
 24 26  1  0  0  0  0
 27 26  1  1  0  0  0
 27 28  1  0  0  0  0
 27 30  1  0  0  0  0
 28 33  1  0  0  0  0
 29 30  1  0  0  0  0
 30 31  1  0  0  0  0
 30 32  1  0  0  0  0
 33 34  1  0  0  0  0
 34 35  2  0  0  0  0
 34 36  1  0  0  0  0
  4 28  1  0  0  0  0
 37 38  1  0  0  0  0
 37 39  1  0  0  0  0
 37 40  1  0  0  0  0
 40 41  2  0  0  0  0
  8 37  1  0  0  0  0
  7 42  1  0  0  0  0
M  END
> <score_KierA1>
0.517594

$$$$
suggested molecule #631
 MOE2019            2D

 42 44  0  0  1  0  0  0  0  0999 V2000
    3.4992   -1.2833    0.0000 C   0  0  0  0  0  0  0  0  0  1  0  0
    4.9992   -1.2762    0.0000 C   0  0  0  0  0  0  0  0  0  2  0  0
    5.7430    0.0263    0.0000 C   0  0  0  0  0  0  0  0  0  3  0  0
    4.9869    1.3218    0.0000 C   0  0  0  0  0  0  0  0  0  4  0  0
    3.4870    1.3147    0.0000 C   0  0  0  0  0  0  0  0  0  5  0  0
    2.7431    0.0122    0.0000 C   0  0  0  0  0  0  0  0  0  6  0  0
    1.2431    0.0051    0.0000 C   0  0  0  0  0  0  0  0  0  7  0  0
    0.4870    1.3006    0.0000 C   0  0  0  0  0  0  0  0  0  8  0  0
    1.2309    2.6032    0.0000 C   0  0  0  0  0  0  0  0  0  9  0  0
    0.4748    3.8987    0.0000 O   0  0  0  0  0  0  0  0  0 10  0  0
    2.7309    2.6102    0.0000 O   0  0  0  0  0  0  0  0  0 11  0  0
    2.9041   -2.3253    0.0000 H   0  0  0  0  0  0  0  0  0  0  0  0
    7.2117   -0.2787    0.0000 O   0  0  0  0  0  0  0  0  0  0  0  0
    7.3755   -1.7697    0.0000 C   0  0  1  0  0  0  0  0  0  0  0  0
    6.0081   -2.3862    0.0000 C   0  0  0  0  0  0  0  0  0  0  0  0
    8.6781   -2.5136    0.0000 C   0  0  0  0  0  0  0  0  0  0  0  0
    9.9806   -3.2575    0.0000 C   0  0  0  0  0  0  0  0  0  0  0  0
    7.9342   -3.8161    0.0000 C   0  0  0  0  0  0  0  0  0  0  0  0
    9.4220   -1.2110    0.0000 O   0  0  0  0  0  0  0  0  0  0  0  0
   10.2063    7.8416    0.0000 C   0  0  0  0  0  0  0  0  0  0  0  0
    9.4625    6.5391    0.0000 C   0  0  0  0  0  0  0  0  0  0  0  0
   10.2186    5.2436    0.0000 C   0  0  0  0  0  0  0  0  0  0  0  0
   11.7185    5.2506    0.0000 C   0  0  0  0  0  0  0  0  0  0  0  0
    9.4747    3.9410    0.0000 C   0  0  0  0  0  0  0  0  0  0  0  0
   10.2308    2.6455    0.0000 O   0  0  0  0  0  0  0  0  0  0  0  0
    7.9747    3.9340    0.0000 O   0  0  0  0  0  0  0  0  0  0  0  0
    7.2308    2.6314    0.0000 C   0  0  2  0  0  0  0  0  0  0  0  0
    5.7308    2.6244    0.0000 C   0  0  0  0  0  0  0  0  0  0  0  0
    6.6914    0.5798    0.0000 O   0  0  0  0  0  0  0  0  0  0  0  0
    7.9869    1.3359    0.0000 C   0  0  0  0  0  0  0  0  0  0  0  0
    9.2824    2.0920    0.0000 C   0  0  0  0  0  0  0  0  0  0  0  0
    8.7430    0.0404    0.0000 C   0  0  0  0  0  0  0  0  0  0  0  0
    4.9747    3.9198    0.0000 O   0  0  0  0  0  0  0  0  0  0  0  0
    5.7186    5.2224    0.0000 C   0  0  0  0  0  0  0  0  0  0  0  0
    7.2186    5.2295    0.0000 O   0  0  0  0  0  0  0  0  0  0  0  0
    4.9625    6.5179    0.0000 C   0  0  0  0  0  0  0  0  0  0  0  0
   -1.0130    1.2936    0.0000 C   0  0  0  0  0  0  0  0  0  0  0  0
   -1.0059   -0.2064    0.0000 C   0  0  0  0  0  0  0  0  0  0  0  0
   -1.0200    2.7936    0.0000 C   0  0  0  0  0  0  0  0  0  0  0  0
   -2.5130    1.2865    0.0000 C   0  0  0  0  0  0  0  0  0  0  0  0
   -3.2569   -0.0160    0.0000 C   0  0  0  0  0  0  0  0  0  0  0  0
    0.6480   -1.0369    0.0000 H   0  0  0  0  0  0  0  0  0  0  0  0
  1  2  2  0  0  0  0
  1  6  1  0  0  0  0
  2  3  1  0  0  0  0
  3  4  2  0  0  0  0
  4  5  1  0  0  0  0
  5  6  2  0  0  0  0
  5 11  1  0  0  0  0
  6  7  1  0  0  0  0
  7  8  2  0  0  0  0
  8  9  1  0  0  0  0
  9 10  2  0  0  0  0
  9 11  1  0  0  0  0
  1 12  1  0  0  0  0
 13 14  1  0  0  0  0
 14 15  1  0  0  0  0
 14 16  1  6  0  0  0
 16 17  1  0  0  0  0
 16 18  1  0  0  0  0
 16 19  1  0  0  0  0
  2 15  1  0  0  0  0
  3 13  1  0  0  0  0
 20 21  1  0  0  0  0
 21 22  1  0  0  0  0
 22 23  1  0  0  0  0
 22 24  1  0  0  0  0
 24 25  2  0  0  0  0
 24 26  1  0  0  0  0
 27 26  1  1  0  0  0
 27 28  1  0  0  0  0
 27 30  1  0  0  0  0
 28 33  1  0  0  0  0
 29 30  1  0  0  0  0
 30 31  1  0  0  0  0
 30 32  1  0  0  0  0
 33 34  1  0  0  0  0
 34 35  2  0  0  0  0
 34 36  1  0  0  0  0
  4 28  1  0  0  0  0
 37 38  1  0  0  0  0
 37 39  1  0  0  0  0
 37 40  1  0  0  0  0
 40 41  2  0  0  0  0
  8 37  1  0  0  0  0
  7 42  1  0  0  0  0
M  END
> <score_KierA2>
0.516768

$$$$
suggested molecule #632
 MOE2019            2D

 42 44  0  0  1  0  0  0  0  0999 V2000
    3.4992   -1.2833    0.0000 C   0  0  0  0  0  0  0  0  0  1  0  0
    4.9992   -1.2762    0.0000 C   0  0  0  0  0  0  0  0  0  2  0  0
    5.7430    0.0263    0.0000 C   0  0  0  0  0  0  0  0  0  3  0  0
    4.9869    1.3218    0.0000 C   0  0  0  0  0  0  0  0  0  4  0  0
    3.4870    1.3147    0.0000 C   0  0  0  0  0  0  0  0  0  5  0  0
    2.7431    0.0122    0.0000 C   0  0  0  0  0  0  0  0  0  6  0  0
    1.2431    0.0051    0.0000 C   0  0  0  0  0  0  0  0  0  7  0  0
    0.4870    1.3006    0.0000 C   0  0  0  0  0  0  0  0  0  8  0  0
    1.2309    2.6032    0.0000 C   0  0  0  0  0  0  0  0  0  9  0  0
    0.4748    3.8987    0.0000 O   0  0  0  0  0  0  0  0  0 10  0  0
    2.7309    2.6102    0.0000 O   0  0  0  0  0  0  0  0  0 11  0  0
    2.9041   -2.3253    0.0000 H   0  0  0  0  0  0  0  0  0  0  0  0
    7.2117   -0.2787    0.0000 O   0  0  0  0  0  0  0  0  0  0  0  0
    7.3755   -1.7697    0.0000 C   0  0  1  0  0  0  0  0  0  0  0  0
    6.0081   -2.3862    0.0000 C   0  0  0  0  0  0  0  0  0  0  0  0
    8.6781   -2.5136    0.0000 C   0  0  0  0  0  0  0  0  0  0  0  0
    9.9806   -3.2575    0.0000 C   0  0  0  0  0  0  0  0  0  0  0  0
    9.4220   -1.2110    0.0000 C   0  0  0  0  0  0  0  0  0  0  0  0
    7.9342   -3.8161    0.0000 O   0  0  0  0  0  0  0  0  0  0  0  0
   13.7185    5.2600    0.0000 C   0  0  0  0  0  0  0  0  0  0  0  0
   12.9624    6.5555    0.0000 C   0  0  0  0  0  0  0  0  0  0  0  0
   13.7063    7.8581    0.0000 C   0  0  0  0  0  0  0  0  0  0  0  0
   11.4624    6.5485    0.0000 C   0  0  0  0  0  0  0  0  0  0  0  0
   10.7185    5.2459    0.0000 C   0  0  0  0  0  0  0  0  0  0  0  0
   11.4746    3.9504    0.0000 O   0  0  0  0  0  0  0  0  0  0  0  0
    9.2186    5.2389    0.0000 O   0  0  0  0  0  0  0  0  0  0  0  0
    8.4747    3.9363    0.0000 C   0  0  0  0  0  0  0  0  0  0  0  0
    9.7772    3.1924    0.0000 C   0  0  0  0  0  0  0  0  0  0  0  0
    7.1721    4.6802    0.0000 C   0  0  0  0  0  0  0  0  0  0  0  0
    7.7308    2.6338    0.0000 C   0  0  2  0  0  0  0  0  0  0  0  0
    5.7308    2.6244    0.0000 C   0  0  0  0  0  0  0  0  0  0  0  0
    8.4869    1.3383    0.0000 O   0  0  0  0  0  0  0  0  0  0  0  0
    4.9747    3.9198    0.0000 O   0  0  0  0  0  0  0  0  0  0  0  0
    5.7186    5.2224    0.0000 C   0  0  0  0  0  0  0  0  0  0  0  0
    7.2186    5.2295    0.0000 O   0  0  0  0  0  0  0  0  0  0  0  0
    4.9625    6.5179    0.0000 C   0  0  0  0  0  0  0  0  0  0  0  0
   -1.0130    1.2936    0.0000 C   0  0  0  0  0  0  0  0  0  0  0  0
   -1.0200    2.7936    0.0000 C   0  0  0  0  0  0  0  0  0  0  0  0
   -1.0059   -0.2064    0.0000 C   0  0  0  0  0  0  0  0  0  0  0  0
   -2.5130    1.2865    0.0000 C   0  0  0  0  0  0  0  0  0  0  0  0
   -3.2569   -0.0160    0.0000 C   0  0  0  0  0  0  0  0  0  0  0  0
    0.6480   -1.0369    0.0000 H   0  0  0  0  0  0  0  0  0  0  0  0
  1  2  2  0  0  0  0
  1  6  1  0  0  0  0
  2  3  1  0  0  0  0
  3  4  2  0  0  0  0
  4  5  1  0  0  0  0
  5  6  2  0  0  0  0
  5 11  1  0  0  0  0
  6  7  1  0  0  0  0
  7  8  2  0  0  0  0
  8  9  1  0  0  0  0
  9 10  2  0  0  0  0
  9 11  1  0  0  0  0
  1 12  1  0  0  0  0
 13 14  1  0  0  0  0
 14 15  1  0  0  0  0
 14 16  1  6  0  0  0
 16 17  1  0  0  0  0
 16 18  1  0  0  0  0
 16 19  1  0  0  0  0
  2 15  1  0  0  0  0
  3 13  1  0  0  0  0
 20 21  1  0  0  0  0
 21 22  1  0  0  0  0
 21 23  1  0  0  0  0
 23 24  1  0  0  0  0
 24 25  2  0  0  0  0
 24 26  1  0  0  0  0
 26 27  1  0  0  0  0
 27 28  1  0  0  0  0
 27 29  1  0  0  0  0
 30 27  1  1  0  0  0
 30 31  1  0  0  0  0
 30 32  1  0  0  0  0
 31 33  1  0  0  0  0
 33 34  1  0  0  0  0
 34 35  2  0  0  0  0
 34 36  1  0  0  0  0
  4 31  1  0  0  0  0
 37 38  1  0  0  0  0
 37 39  1  0  0  0  0
 37 40  1  0  0  0  0
 40 41  2  0  0  0  0
  8 37  1  0  0  0  0
  7 42  1  0  0  0  0
M  END
> <score_Kier1>
0.517766

$$$$
suggested molecule #633
 MOE2019            2D

 42 44  0  0  1  0  0  0  0  0999 V2000
    3.4992   -1.2833    0.0000 C   0  0  0  0  0  0  0  0  0  1  0  0
    4.9992   -1.2762    0.0000 C   0  0  0  0  0  0  0  0  0  2  0  0
    5.7430    0.0263    0.0000 C   0  0  0  0  0  0  0  0  0  3  0  0
    4.9869    1.3218    0.0000 C   0  0  0  0  0  0  0  0  0  4  0  0
    3.4870    1.3147    0.0000 C   0  0  0  0  0  0  0  0  0  5  0  0
    2.7431    0.0122    0.0000 C   0  0  0  0  0  0  0  0  0  6  0  0
    1.2431    0.0051    0.0000 C   0  0  0  0  0  0  0  0  0  7  0  0
    0.4870    1.3006    0.0000 C   0  0  0  0  0  0  0  0  0  8  0  0
    1.2309    2.6032    0.0000 C   0  0  0  0  0  0  0  0  0  9  0  0
    0.4748    3.8987    0.0000 O   0  0  0  0  0  0  0  0  0 10  0  0
    2.7309    2.6102    0.0000 O   0  0  0  0  0  0  0  0  0 11  0  0
    2.9041   -2.3253    0.0000 H   0  0  0  0  0  0  0  0  0  0  0  0
    7.2117   -0.2787    0.0000 O   0  0  0  0  0  0  0  0  0  0  0  0
    7.3755   -1.7697    0.0000 C   0  0  1  0  0  0  0  0  0  0  0  0
    6.0081   -2.3862    0.0000 C   0  0  0  0  0  0  0  0  0  0  0  0
    8.6781   -2.5136    0.0000 C   0  0  0  0  0  0  0  0  0  0  0  0
    9.9806   -3.2575    0.0000 C   0  0  0  0  0  0  0  0  0  0  0  0
    9.4220   -1.2110    0.0000 C   0  0  0  0  0  0  0  0  0  0  0  0
    7.9342   -3.8161    0.0000 O   0  0  0  0  0  0  0  0  0  0  0  0
   13.7185    5.2600    0.0000 C   0  0  0  0  0  0  0  0  0  0  0  0
   12.9624    6.5555    0.0000 C   0  0  0  0  0  0  0  0  0  0  0  0
   13.7063    7.8581    0.0000 C   0  0  0  0  0  0  0  0  0  0  0  0
   11.4624    6.5485    0.0000 C   0  0  0  0  0  0  0  0  0  0  0  0
   10.7185    5.2459    0.0000 C   0  0  0  0  0  0  0  0  0  0  0  0
   11.4746    3.9504    0.0000 O   0  0  0  0  0  0  0  0  0  0  0  0
    9.2186    5.2389    0.0000 O   0  0  0  0  0  0  0  0  0  0  0  0
    8.4747    3.9363    0.0000 C   0  0  0  0  0  0  0  0  0  0  0  0
    9.7772    3.1924    0.0000 C   0  0  0  0  0  0  0  0  0  0  0  0
    7.1721    4.6802    0.0000 C   0  0  0  0  0  0  0  0  0  0  0  0
    7.7308    2.6338    0.0000 C   0  0  2  0  0  0  0  0  0  0  0  0
    5.7308    2.6244    0.0000 C   0  0  0  0  0  0  0  0  0  0  0  0
    8.4869    1.3383    0.0000 O   0  0  0  0  0  0  0  0  0  0  0  0
    4.9747    3.9198    0.0000 O   0  0  0  0  0  0  0  0  0  0  0  0
    5.7186    5.2224    0.0000 C   0  0  0  0  0  0  0  0  0  0  0  0
    7.2186    5.2295    0.0000 O   0  0  0  0  0  0  0  0  0  0  0  0
    4.9625    6.5179    0.0000 C   0  0  0  0  0  0  0  0  0  0  0  0
   -1.0130    1.2936    0.0000 C   0  0  0  0  0  0  0  0  0  0  0  0
   -1.0200    2.7936    0.0000 C   0  0  0  0  0  0  0  0  0  0  0  0
   -1.0059   -0.2064    0.0000 C   0  0  0  0  0  0  0  0  0  0  0  0
   -2.5130    1.2865    0.0000 C   0  0  0  0  0  0  0  0  0  0  0  0
   -3.2569   -0.0160    0.0000 C   0  0  0  0  0  0  0  0  0  0  0  0
    0.6480   -1.0369    0.0000 H   0  0  0  0  0  0  0  0  0  0  0  0
  1  2  2  0  0  0  0
  1  6  1  0  0  0  0
  2  3  1  0  0  0  0
  3  4  2  0  0  0  0
  4  5  1  0  0  0  0
  5  6  2  0  0  0  0
  5 11  1  0  0  0  0
  6  7  1  0  0  0  0
  7  8  2  0  0  0  0
  8  9  1  0  0  0  0
  9 10  2  0  0  0  0
  9 11  1  0  0  0  0
  1 12  1  0  0  0  0
 13 14  1  0  0  0  0
 14 15  1  0  0  0  0
 14 16  1  6  0  0  0
 16 17  1  0  0  0  0
 16 18  1  0  0  0  0
 16 19  1  0  0  0  0
  2 15  1  0  0  0  0
  3 13  1  0  0  0  0
 20 21  1  0  0  0  0
 21 22  1  0  0  0  0
 21 23  1  0  0  0  0
 23 24  1  0  0  0  0
 24 25  2  0  0  0  0
 24 26  1  0  0  0  0
 26 27  1  0  0  0  0
 27 28  1  0  0  0  0
 27 29  1  0  0  0  0
 30 27  1  1  0  0  0
 30 31  1  0  0  0  0
 30 32  1  0  0  0  0
 31 33  1  0  0  0  0
 33 34  1  0  0  0  0
 34 35  2  0  0  0  0
 34 36  1  0  0  0  0
  4 31  1  0  0  0  0
 37 38  1  0  0  0  0
 37 39  1  0  0  0  0
 37 40  1  0  0  0  0
 40 41  2  0  0  0  0
  8 37  1  0  0  0  0
  7 42  1  0  0  0  0
M  END
> <score_Kier2>
0.516578

$$$$
suggested molecule #634
 MOE2019            2D

 42 44  0  0  1  0  0  0  0  0999 V2000
    3.4992   -1.2833    0.0000 C   0  0  0  0  0  0  0  0  0  1  0  0
    4.9992   -1.2762    0.0000 C   0  0  0  0  0  0  0  0  0  2  0  0
    5.7430    0.0263    0.0000 C   0  0  0  0  0  0  0  0  0  3  0  0
    4.9869    1.3218    0.0000 C   0  0  0  0  0  0  0  0  0  4  0  0
    3.4870    1.3147    0.0000 C   0  0  0  0  0  0  0  0  0  5  0  0
    2.7431    0.0122    0.0000 C   0  0  0  0  0  0  0  0  0  6  0  0
    1.2431    0.0051    0.0000 C   0  0  0  0  0  0  0  0  0  7  0  0
    0.4870    1.3006    0.0000 C   0  0  0  0  0  0  0  0  0  8  0  0
    1.2309    2.6032    0.0000 C   0  0  0  0  0  0  0  0  0  9  0  0
    0.4748    3.8987    0.0000 O   0  0  0  0  0  0  0  0  0 10  0  0
    2.7309    2.6102    0.0000 O   0  0  0  0  0  0  0  0  0 11  0  0
    2.9041   -2.3253    0.0000 H   0  0  0  0  0  0  0  0  0  0  0  0
    7.2117   -0.2787    0.0000 O   0  0  0  0  0  0  0  0  0  0  0  0
    7.3755   -1.7697    0.0000 C   0  0  1  0  0  0  0  0  0  0  0  0
    6.0081   -2.3862    0.0000 C   0  0  0  0  0  0  0  0  0  0  0  0
    8.6781   -2.5136    0.0000 C   0  0  0  0  0  0  0  0  0  0  0  0
    9.9806   -3.2575    0.0000 C   0  0  0  0  0  0  0  0  0  0  0  0
    9.4220   -1.2110    0.0000 C   0  0  0  0  0  0  0  0  0  0  0  0
    7.9342   -3.8161    0.0000 O   0  0  0  0  0  0  0  0  0  0  0  0
   13.7185    5.2600    0.0000 C   0  0  0  0  0  0  0  0  0  0  0  0
   12.9624    6.5555    0.0000 C   0  0  0  0  0  0  0  0  0  0  0  0
   13.7063    7.8581    0.0000 C   0  0  0  0  0  0  0  0  0  0  0  0
   11.4624    6.5485    0.0000 C   0  0  0  0  0  0  0  0  0  0  0  0
   10.7185    5.2459    0.0000 C   0  0  0  0  0  0  0  0  0  0  0  0
   11.4746    3.9504    0.0000 O   0  0  0  0  0  0  0  0  0  0  0  0
    9.2186    5.2389    0.0000 O   0  0  0  0  0  0  0  0  0  0  0  0
    8.4747    3.9363    0.0000 C   0  0  0  0  0  0  0  0  0  0  0  0
    9.7772    3.1924    0.0000 C   0  0  0  0  0  0  0  0  0  0  0  0
    7.1721    4.6802    0.0000 C   0  0  0  0  0  0  0  0  0  0  0  0
    7.7308    2.6338    0.0000 C   0  0  2  0  0  0  0  0  0  0  0  0
    5.7308    2.6244    0.0000 C   0  0  0  0  0  0  0  0  0  0  0  0
    8.4869    1.3383    0.0000 O   0  0  0  0  0  0  0  0  0  0  0  0
    4.9747    3.9198    0.0000 O   0  0  0  0  0  0  0  0  0  0  0  0
    5.7186    5.2224    0.0000 C   0  0  0  0  0  0  0  0  0  0  0  0
    7.2186    5.2295    0.0000 O   0  0  0  0  0  0  0  0  0  0  0  0
    4.9625    6.5179    0.0000 C   0  0  0  0  0  0  0  0  0  0  0  0
   -1.0130    1.2936    0.0000 C   0  0  0  0  0  0  0  0  0  0  0  0
   -1.0200    2.7936    0.0000 C   0  0  0  0  0  0  0  0  0  0  0  0
   -1.0059   -0.2064    0.0000 C   0  0  0  0  0  0  0  0  0  0  0  0
   -2.5130    1.2865    0.0000 C   0  0  0  0  0  0  0  0  0  0  0  0
   -3.2569   -0.0160    0.0000 C   0  0  0  0  0  0  0  0  0  0  0  0
    0.6480   -1.0369    0.0000 H   0  0  0  0  0  0  0  0  0  0  0  0
  1  2  2  0  0  0  0
  1  6  1  0  0  0  0
  2  3  1  0  0  0  0
  3  4  2  0  0  0  0
  4  5  1  0  0  0  0
  5  6  2  0  0  0  0
  5 11  1  0  0  0  0
  6  7  1  0  0  0  0
  7  8  2  0  0  0  0
  8  9  1  0  0  0  0
  9 10  2  0  0  0  0
  9 11  1  0  0  0  0
  1 12  1  0  0  0  0
 13 14  1  0  0  0  0
 14 15  1  0  0  0  0
 14 16  1  6  0  0  0
 16 17  1  0  0  0  0
 16 18  1  0  0  0  0
 16 19  1  0  0  0  0
  2 15  1  0  0  0  0
  3 13  1  0  0  0  0
 20 21  1  0  0  0  0
 21 22  1  0  0  0  0
 21 23  1  0  0  0  0
 23 24  1  0  0  0  0
 24 25  2  0  0  0  0
 24 26  1  0  0  0  0
 26 27  1  0  0  0  0
 27 28  1  0  0  0  0
 27 29  1  0  0  0  0
 30 27  1  1  0  0  0
 30 31  1  0  0  0  0
 30 32  1  0  0  0  0
 31 33  1  0  0  0  0
 33 34  1  0  0  0  0
 34 35  2  0  0  0  0
 34 36  1  0  0  0  0
  4 31  1  0  0  0  0
 37 38  1  0  0  0  0
 37 39  1  0  0  0  0
 37 40  1  0  0  0  0
 40 41  2  0  0  0  0
  8 37  1  0  0  0  0
  7 42  1  0  0  0  0
M  END
> <score_KierA1>
0.517594

$$$$
suggested molecule #635
 MOE2019            2D

 42 44  0  0  1  0  0  0  0  0999 V2000
    3.4992   -1.2833    0.0000 C   0  0  0  0  0  0  0  0  0  1  0  0
    4.9992   -1.2762    0.0000 C   0  0  0  0  0  0  0  0  0  2  0  0
    5.7430    0.0263    0.0000 C   0  0  0  0  0  0  0  0  0  3  0  0
    4.9869    1.3218    0.0000 C   0  0  0  0  0  0  0  0  0  4  0  0
    3.4870    1.3147    0.0000 C   0  0  0  0  0  0  0  0  0  5  0  0
    2.7431    0.0122    0.0000 C   0  0  0  0  0  0  0  0  0  6  0  0
    1.2431    0.0051    0.0000 C   0  0  0  0  0  0  0  0  0  7  0  0
    0.4870    1.3006    0.0000 C   0  0  0  0  0  0  0  0  0  8  0  0
    1.2309    2.6032    0.0000 C   0  0  0  0  0  0  0  0  0  9  0  0
    0.4748    3.8987    0.0000 O   0  0  0  0  0  0  0  0  0 10  0  0
    2.7309    2.6102    0.0000 O   0  0  0  0  0  0  0  0  0 11  0  0
    2.9041   -2.3253    0.0000 H   0  0  0  0  0  0  0  0  0  0  0  0
    7.2117   -0.2787    0.0000 O   0  0  0  0  0  0  0  0  0  0  0  0
    7.3755   -1.7697    0.0000 C   0  0  1  0  0  0  0  0  0  0  0  0
    6.0081   -2.3862    0.0000 C   0  0  0  0  0  0  0  0  0  0  0  0
    8.6781   -2.5136    0.0000 C   0  0  0  0  0  0  0  0  0  0  0  0
    9.9806   -3.2575    0.0000 C   0  0  0  0  0  0  0  0  0  0  0  0
    9.4220   -1.2110    0.0000 C   0  0  0  0  0  0  0  0  0  0  0  0
    7.9342   -3.8161    0.0000 O   0  0  0  0  0  0  0  0  0  0  0  0
   13.7185    5.2600    0.0000 C   0  0  0  0  0  0  0  0  0  0  0  0
   12.9624    6.5555    0.0000 C   0  0  0  0  0  0  0  0  0  0  0  0
   13.7063    7.8581    0.0000 C   0  0  0  0  0  0  0  0  0  0  0  0
   11.4624    6.5485    0.0000 C   0  0  0  0  0  0  0  0  0  0  0  0
   10.7185    5.2459    0.0000 C   0  0  0  0  0  0  0  0  0  0  0  0
   11.4746    3.9504    0.0000 O   0  0  0  0  0  0  0  0  0  0  0  0
    9.2186    5.2389    0.0000 O   0  0  0  0  0  0  0  0  0  0  0  0
    8.4747    3.9363    0.0000 C   0  0  0  0  0  0  0  0  0  0  0  0
    9.7772    3.1924    0.0000 C   0  0  0  0  0  0  0  0  0  0  0  0
    7.1721    4.6802    0.0000 C   0  0  0  0  0  0  0  0  0  0  0  0
    7.7308    2.6338    0.0000 C   0  0  2  0  0  0  0  0  0  0  0  0
    5.7308    2.6244    0.0000 C   0  0  0  0  0  0  0  0  0  0  0  0
    8.4869    1.3383    0.0000 O   0  0  0  0  0  0  0  0  0  0  0  0
    4.9747    3.9198    0.0000 O   0  0  0  0  0  0  0  0  0  0  0  0
    5.7186    5.2224    0.0000 C   0  0  0  0  0  0  0  0  0  0  0  0
    7.2186    5.2295    0.0000 O   0  0  0  0  0  0  0  0  0  0  0  0
    4.9625    6.5179    0.0000 C   0  0  0  0  0  0  0  0  0  0  0  0
   -1.0130    1.2936    0.0000 C   0  0  0  0  0  0  0  0  0  0  0  0
   -1.0200    2.7936    0.0000 C   0  0  0  0  0  0  0  0  0  0  0  0
   -1.0059   -0.2064    0.0000 C   0  0  0  0  0  0  0  0  0  0  0  0
   -2.5130    1.2865    0.0000 C   0  0  0  0  0  0  0  0  0  0  0  0
   -3.2569   -0.0160    0.0000 C   0  0  0  0  0  0  0  0  0  0  0  0
    0.6480   -1.0369    0.0000 H   0  0  0  0  0  0  0  0  0  0  0  0
  1  2  2  0  0  0  0
  1  6  1  0  0  0  0
  2  3  1  0  0  0  0
  3  4  2  0  0  0  0
  4  5  1  0  0  0  0
  5  6  2  0  0  0  0
  5 11  1  0  0  0  0
  6  7  1  0  0  0  0
  7  8  2  0  0  0  0
  8  9  1  0  0  0  0
  9 10  2  0  0  0  0
  9 11  1  0  0  0  0
  1 12  1  0  0  0  0
 13 14  1  0  0  0  0
 14 15  1  0  0  0  0
 14 16  1  6  0  0  0
 16 17  1  0  0  0  0
 16 18  1  0  0  0  0
 16 19  1  0  0  0  0
  2 15  1  0  0  0  0
  3 13  1  0  0  0  0
 20 21  1  0  0  0  0
 21 22  1  0  0  0  0
 21 23  1  0  0  0  0
 23 24  1  0  0  0  0
 24 25  2  0  0  0  0
 24 26  1  0  0  0  0
 26 27  1  0  0  0  0
 27 28  1  0  0  0  0
 27 29  1  0  0  0  0
 30 27  1  1  0  0  0
 30 31  1  0  0  0  0
 30 32  1  0  0  0  0
 31 33  1  0  0  0  0
 33 34  1  0  0  0  0
 34 35  2  0  0  0  0
 34 36  1  0  0  0  0
  4 31  1  0  0  0  0
 37 38  1  0  0  0  0
 37 39  1  0  0  0  0
 37 40  1  0  0  0  0
 40 41  2  0  0  0  0
  8 37  1  0  0  0  0
  7 42  1  0  0  0  0
M  END
> <score_KierA2>
0.516768

$$$$
suggested molecule #636
 MOE2019            2D

 31 33  0  0  1  0  0  0  0  0999 V2000
    3.4992   -1.2833    0.0000 C   0  0  0  0  0  0  0  0  0  1  0  0
    4.9992   -1.2762    0.0000 C   0  0  0  0  0  0  0  0  0  2  0  0
    5.7430    0.0263    0.0000 C   0  0  0  0  0  0  0  0  0  3  0  0
    4.9869    1.3218    0.0000 C   0  0  0  0  0  0  0  0  0  4  0  0
    3.4870    1.3147    0.0000 C   0  0  0  0  0  0  0  0  0  5  0  0
    2.7431    0.0122    0.0000 C   0  0  0  0  0  0  0  0  0  6  0  0
    1.2431    0.0051    0.0000 C   0  0  0  0  0  0  0  0  0  7  0  0
    0.4870    1.3006    0.0000 C   0  0  0  0  0  0  0  0  0  8  0  0
    1.2309    2.6032    0.0000 C   0  0  0  0  0  0  0  0  0  9  0  0
    0.4748    3.8987    0.0000 O   0  0  0  0  0  0  0  0  0 10  0  0
    2.7309    2.6102    0.0000 O   0  0  0  0  0  0  0  0  0 11  0  0
    2.9041   -2.3253    0.0000 H   0  0  0  0  0  0  0  0  0  0  0  0
    7.2117   -0.2787    0.0000 O   0  0  0  0  0  0  0  0  0  0  0  0
    7.3755   -1.7697    0.0000 C   0  0  1  0  0  0  0  0  0  0  0  0
    6.0081   -2.3862    0.0000 C   0  0  0  0  0  0  0  0  0  0  0  0
    8.6781   -2.5136    0.0000 C   0  0  0  0  0  0  0  0  0  0  0  0
    9.9806   -3.2575    0.0000 C   0  0  0  0  0  0  0  0  0  0  0  0
    9.4220   -1.2110    0.0000 C   0  0  0  0  0  0  0  0  0  0  0  0
    7.9342   -3.8161    0.0000 O   0  0  0  0  0  0  0  0  0  0  0  0
    7.2186    5.2295    0.0000 C   0  0  0  0  0  0  0  0  0  0  0  0
    7.9747    3.9340    0.0000 C   0  0  0  0  0  0  0  0  0  0  0  0
    9.4747    3.9410    0.0000 C   0  0  0  0  0  0  0  0  0  0  0  0
    7.2308    2.6314    0.0000 C   0  0  0  0  0  0  0  0  0  0  0  0
    5.7308    2.6244    0.0000 C   0  0  0  0  0  0  0  0  0  0  0  0
    7.9869    1.3359    0.0000 O   0  0  0  0  0  0  0  0  0  0  0  0
   -1.0130    1.2936    0.0000 C   0  0  0  0  0  0  0  0  0  0  0  0
   -1.0200    2.7936    0.0000 C   0  0  0  0  0  0  0  0  0  0  0  0
   -1.0059   -0.2064    0.0000 C   0  0  0  0  0  0  0  0  0  0  0  0
   -2.5130    1.2865    0.0000 C   0  0  0  0  0  0  0  0  0  0  0  0
   -3.2569   -0.0160    0.0000 C   0  0  0  0  0  0  0  0  0  0  0  0
    0.6480   -1.0369    0.0000 H   0  0  0  0  0  0  0  0  0  0  0  0
  1  2  2  0  0  0  0
  1  6  1  0  0  0  0
  2  3  1  0  0  0  0
  3  4  2  0  0  0  0
  4  5  1  0  0  0  0
  5  6  2  0  0  0  0
  5 11  1  0  0  0  0
  6  7  1  0  0  0  0
  7  8  2  0  0  0  0
  8  9  1  0  0  0  0
  9 10  2  0  0  0  0
  9 11  1  0  0  0  0
  1 12  1  0  0  0  0
 13 14  1  0  0  0  0
 14 15  1  0  0  0  0
 14 16  1  6  0  0  0
 16 17  1  0  0  0  0
 16 18  1  0  0  0  0
 16 19  1  0  0  0  0
  2 15  1  0  0  0  0
  3 13  1  0  0  0  0
 20 21  1  0  0  0  0
 21 22  2  0  0  0  0
 21 23  1  0  0  0  0
 23 24  1  0  0  0  0
 23 25  1  0  0  0  0
  4 24  1  0  0  0  0
 26 27  1  0  0  0  0
 26 28  1  0  0  0  0
 26 29  1  0  0  0  0
 29 30  2  0  0  0  0
  8 26  1  0  0  0  0
  7 31  1  0  0  0  0
M  END
> <score_Kier1>
0.517777

$$$$
suggested molecule #637
 MOE2019            2D

 31 33  0  0  1  0  0  0  0  0999 V2000
    3.4992   -1.2833    0.0000 C   0  0  0  0  0  0  0  0  0  1  0  0
    4.9992   -1.2762    0.0000 C   0  0  0  0  0  0  0  0  0  2  0  0
    5.7430    0.0263    0.0000 C   0  0  0  0  0  0  0  0  0  3  0  0
    4.9869    1.3218    0.0000 C   0  0  0  0  0  0  0  0  0  4  0  0
    3.4870    1.3147    0.0000 C   0  0  0  0  0  0  0  0  0  5  0  0
    2.7431    0.0122    0.0000 C   0  0  0  0  0  0  0  0  0  6  0  0
    1.2431    0.0051    0.0000 C   0  0  0  0  0  0  0  0  0  7  0  0
    0.4870    1.3006    0.0000 C   0  0  0  0  0  0  0  0  0  8  0  0
    1.2309    2.6032    0.0000 C   0  0  0  0  0  0  0  0  0  9  0  0
    0.4748    3.8987    0.0000 O   0  0  0  0  0  0  0  0  0 10  0  0
    2.7309    2.6102    0.0000 O   0  0  0  0  0  0  0  0  0 11  0  0
    2.9041   -2.3253    0.0000 H   0  0  0  0  0  0  0  0  0  0  0  0
    7.2117   -0.2787    0.0000 O   0  0  0  0  0  0  0  0  0  0  0  0
    7.3755   -1.7697    0.0000 C   0  0  1  0  0  0  0  0  0  0  0  0
    6.0081   -2.3862    0.0000 C   0  0  0  0  0  0  0  0  0  0  0  0
    8.6781   -2.5136    0.0000 C   0  0  0  0  0  0  0  0  0  0  0  0
    9.9806   -3.2575    0.0000 C   0  0  0  0  0  0  0  0  0  0  0  0
    9.4220   -1.2110    0.0000 C   0  0  0  0  0  0  0  0  0  0  0  0
    7.9342   -3.8161    0.0000 O   0  0  0  0  0  0  0  0  0  0  0  0
    7.2186    5.2295    0.0000 C   0  0  0  0  0  0  0  0  0  0  0  0
    7.9747    3.9340    0.0000 C   0  0  0  0  0  0  0  0  0  0  0  0
    9.4747    3.9410    0.0000 C   0  0  0  0  0  0  0  0  0  0  0  0
    7.2308    2.6314    0.0000 C   0  0  0  0  0  0  0  0  0  0  0  0
    5.7308    2.6244    0.0000 C   0  0  0  0  0  0  0  0  0  0  0  0
    7.9869    1.3359    0.0000 O   0  0  0  0  0  0  0  0  0  0  0  0
   -1.0130    1.2936    0.0000 C   0  0  0  0  0  0  0  0  0  0  0  0
   -1.0200    2.7936    0.0000 C   0  0  0  0  0  0  0  0  0  0  0  0
   -1.0059   -0.2064    0.0000 C   0  0  0  0  0  0  0  0  0  0  0  0
   -2.5130    1.2865    0.0000 C   0  0  0  0  0  0  0  0  0  0  0  0
   -3.2569   -0.0160    0.0000 C   0  0  0  0  0  0  0  0  0  0  0  0
    0.6480   -1.0369    0.0000 H   0  0  0  0  0  0  0  0  0  0  0  0
  1  2  2  0  0  0  0
  1  6  1  0  0  0  0
  2  3  1  0  0  0  0
  3  4  2  0  0  0  0
  4  5  1  0  0  0  0
  5  6  2  0  0  0  0
  5 11  1  0  0  0  0
  6  7  1  0  0  0  0
  7  8  2  0  0  0  0
  8  9  1  0  0  0  0
  9 10  2  0  0  0  0
  9 11  1  0  0  0  0
  1 12  1  0  0  0  0
 13 14  1  0  0  0  0
 14 15  1  0  0  0  0
 14 16  1  6  0  0  0
 16 17  1  0  0  0  0
 16 18  1  0  0  0  0
 16 19  1  0  0  0  0
  2 15  1  0  0  0  0
  3 13  1  0  0  0  0
 20 21  1  0  0  0  0
 21 22  2  0  0  0  0
 21 23  1  0  0  0  0
 23 24  1  0  0  0  0
 23 25  1  0  0  0  0
  4 24  1  0  0  0  0
 26 27  1  0  0  0  0
 26 28  1  0  0  0  0
 26 29  1  0  0  0  0
 29 30  2  0  0  0  0
  8 26  1  0  0  0  0
  7 31  1  0  0  0  0
M  END
> <score_Kier2>
0.51659

$$$$
suggested molecule #638
 MOE2019            2D

 31 33  0  0  1  0  0  0  0  0999 V2000
    3.4992   -1.2833    0.0000 C   0  0  0  0  0  0  0  0  0  1  0  0
    4.9992   -1.2762    0.0000 C   0  0  0  0  0  0  0  0  0  2  0  0
    5.7430    0.0263    0.0000 C   0  0  0  0  0  0  0  0  0  3  0  0
    4.9869    1.3218    0.0000 C   0  0  0  0  0  0  0  0  0  4  0  0
    3.4870    1.3147    0.0000 C   0  0  0  0  0  0  0  0  0  5  0  0
    2.7431    0.0122    0.0000 C   0  0  0  0  0  0  0  0  0  6  0  0
    1.2431    0.0051    0.0000 C   0  0  0  0  0  0  0  0  0  7  0  0
    0.4870    1.3006    0.0000 C   0  0  0  0  0  0  0  0  0  8  0  0
    1.2309    2.6032    0.0000 C   0  0  0  0  0  0  0  0  0  9  0  0
    0.4748    3.8987    0.0000 O   0  0  0  0  0  0  0  0  0 10  0  0
    2.7309    2.6102    0.0000 O   0  0  0  0  0  0  0  0  0 11  0  0
    2.9041   -2.3253    0.0000 H   0  0  0  0  0  0  0  0  0  0  0  0
    7.2117   -0.2787    0.0000 O   0  0  0  0  0  0  0  0  0  0  0  0
    7.3755   -1.7697    0.0000 C   0  0  1  0  0  0  0  0  0  0  0  0
    6.0081   -2.3862    0.0000 C   0  0  0  0  0  0  0  0  0  0  0  0
    8.6781   -2.5136    0.0000 C   0  0  0  0  0  0  0  0  0  0  0  0
    9.9806   -3.2575    0.0000 C   0  0  0  0  0  0  0  0  0  0  0  0
    9.4220   -1.2110    0.0000 C   0  0  0  0  0  0  0  0  0  0  0  0
    7.9342   -3.8161    0.0000 O   0  0  0  0  0  0  0  0  0  0  0  0
    7.2186    5.2295    0.0000 C   0  0  0  0  0  0  0  0  0  0  0  0
    7.9747    3.9340    0.0000 C   0  0  0  0  0  0  0  0  0  0  0  0
    9.4747    3.9410    0.0000 C   0  0  0  0  0  0  0  0  0  0  0  0
    7.2308    2.6314    0.0000 C   0  0  0  0  0  0  0  0  0  0  0  0
    5.7308    2.6244    0.0000 C   0  0  0  0  0  0  0  0  0  0  0  0
    7.9869    1.3359    0.0000 O   0  0  0  0  0  0  0  0  0  0  0  0
   -1.0130    1.2936    0.0000 C   0  0  0  0  0  0  0  0  0  0  0  0
   -1.0200    2.7936    0.0000 C   0  0  0  0  0  0  0  0  0  0  0  0
   -1.0059   -0.2064    0.0000 C   0  0  0  0  0  0  0  0  0  0  0  0
   -2.5130    1.2865    0.0000 C   0  0  0  0  0  0  0  0  0  0  0  0
   -3.2569   -0.0160    0.0000 C   0  0  0  0  0  0  0  0  0  0  0  0
    0.6480   -1.0369    0.0000 H   0  0  0  0  0  0  0  0  0  0  0  0
  1  2  2  0  0  0  0
  1  6  1  0  0  0  0
  2  3  1  0  0  0  0
  3  4  2  0  0  0  0
  4  5  1  0  0  0  0
  5  6  2  0  0  0  0
  5 11  1  0  0  0  0
  6  7  1  0  0  0  0
  7  8  2  0  0  0  0
  8  9  1  0  0  0  0
  9 10  2  0  0  0  0
  9 11  1  0  0  0  0
  1 12  1  0  0  0  0
 13 14  1  0  0  0  0
 14 15  1  0  0  0  0
 14 16  1  6  0  0  0
 16 17  1  0  0  0  0
 16 18  1  0  0  0  0
 16 19  1  0  0  0  0
  2 15  1  0  0  0  0
  3 13  1  0  0  0  0
 20 21  1  0  0  0  0
 21 22  2  0  0  0  0
 21 23  1  0  0  0  0
 23 24  1  0  0  0  0
 23 25  1  0  0  0  0
  4 24  1  0  0  0  0
 26 27  1  0  0  0  0
 26 28  1  0  0  0  0
 26 29  1  0  0  0  0
 29 30  2  0  0  0  0
  8 26  1  0  0  0  0
  7 31  1  0  0  0  0
M  END
> <score_KierA1>
0.517609

$$$$
suggested molecule #639
 MOE2019            2D

 31 33  0  0  1  0  0  0  0  0999 V2000
    3.4992   -1.2833    0.0000 C   0  0  0  0  0  0  0  0  0  1  0  0
    4.9992   -1.2762    0.0000 C   0  0  0  0  0  0  0  0  0  2  0  0
    5.7430    0.0263    0.0000 C   0  0  0  0  0  0  0  0  0  3  0  0
    4.9869    1.3218    0.0000 C   0  0  0  0  0  0  0  0  0  4  0  0
    3.4870    1.3147    0.0000 C   0  0  0  0  0  0  0  0  0  5  0  0
    2.7431    0.0122    0.0000 C   0  0  0  0  0  0  0  0  0  6  0  0
    1.2431    0.0051    0.0000 C   0  0  0  0  0  0  0  0  0  7  0  0
    0.4870    1.3006    0.0000 C   0  0  0  0  0  0  0  0  0  8  0  0
    1.2309    2.6032    0.0000 C   0  0  0  0  0  0  0  0  0  9  0  0
    0.4748    3.8987    0.0000 O   0  0  0  0  0  0  0  0  0 10  0  0
    2.7309    2.6102    0.0000 O   0  0  0  0  0  0  0  0  0 11  0  0
    2.9041   -2.3253    0.0000 H   0  0  0  0  0  0  0  0  0  0  0  0
    7.2117   -0.2787    0.0000 O   0  0  0  0  0  0  0  0  0  0  0  0
    7.3755   -1.7697    0.0000 C   0  0  1  0  0  0  0  0  0  0  0  0
    6.0081   -2.3862    0.0000 C   0  0  0  0  0  0  0  0  0  0  0  0
    8.6781   -2.5136    0.0000 C   0  0  0  0  0  0  0  0  0  0  0  0
    9.9806   -3.2575    0.0000 C   0  0  0  0  0  0  0  0  0  0  0  0
    9.4220   -1.2110    0.0000 C   0  0  0  0  0  0  0  0  0  0  0  0
    7.9342   -3.8161    0.0000 O   0  0  0  0  0  0  0  0  0  0  0  0
    7.2186    5.2295    0.0000 C   0  0  0  0  0  0  0  0  0  0  0  0
    7.9747    3.9340    0.0000 C   0  0  0  0  0  0  0  0  0  0  0  0
    9.4747    3.9410    0.0000 C   0  0  0  0  0  0  0  0  0  0  0  0
    7.2308    2.6314    0.0000 C   0  0  0  0  0  0  0  0  0  0  0  0
    5.7308    2.6244    0.0000 C   0  0  0  0  0  0  0  0  0  0  0  0
    7.9869    1.3359    0.0000 O   0  0  0  0  0  0  0  0  0  0  0  0
   -1.0130    1.2936    0.0000 C   0  0  0  0  0  0  0  0  0  0  0  0
   -1.0200    2.7936    0.0000 C   0  0  0  0  0  0  0  0  0  0  0  0
   -1.0059   -0.2064    0.0000 C   0  0  0  0  0  0  0  0  0  0  0  0
   -2.5130    1.2865    0.0000 C   0  0  0  0  0  0  0  0  0  0  0  0
   -3.2569   -0.0160    0.0000 C   0  0  0  0  0  0  0  0  0  0  0  0
    0.6480   -1.0369    0.0000 H   0  0  0  0  0  0  0  0  0  0  0  0
  1  2  2  0  0  0  0
  1  6  1  0  0  0  0
  2  3  1  0  0  0  0
  3  4  2  0  0  0  0
  4  5  1  0  0  0  0
  5  6  2  0  0  0  0
  5 11  1  0  0  0  0
  6  7  1  0  0  0  0
  7  8  2  0  0  0  0
  8  9  1  0  0  0  0
  9 10  2  0  0  0  0
  9 11  1  0  0  0  0
  1 12  1  0  0  0  0
 13 14  1  0  0  0  0
 14 15  1  0  0  0  0
 14 16  1  6  0  0  0
 16 17  1  0  0  0  0
 16 18  1  0  0  0  0
 16 19  1  0  0  0  0
  2 15  1  0  0  0  0
  3 13  1  0  0  0  0
 20 21  1  0  0  0  0
 21 22  2  0  0  0  0
 21 23  1  0  0  0  0
 23 24  1  0  0  0  0
 23 25  1  0  0  0  0
  4 24  1  0  0  0  0
 26 27  1  0  0  0  0
 26 28  1  0  0  0  0
 26 29  1  0  0  0  0
 29 30  2  0  0  0  0
  8 26  1  0  0  0  0
  7 31  1  0  0  0  0
M  END
> <score_KierA2>
0.516784

$$$$
suggested molecule #640
 MOE2019            2D

 31 33  0  0  1  0  0  0  0  0999 V2000
    3.4992   -1.2833    0.0000 C   0  0  0  0  0  0  0  0  0  1  0  0
    4.9992   -1.2762    0.0000 C   0  0  0  0  0  0  0  0  0  2  0  0
    5.7430    0.0263    0.0000 C   0  0  0  0  0  0  0  0  0  3  0  0
    4.9869    1.3218    0.0000 C   0  0  0  0  0  0  0  0  0  4  0  0
    3.4870    1.3147    0.0000 C   0  0  0  0  0  0  0  0  0  5  0  0
    2.7431    0.0122    0.0000 C   0  0  0  0  0  0  0  0  0  6  0  0
    1.2431    0.0051    0.0000 C   0  0  0  0  0  0  0  0  0  7  0  0
    0.4870    1.3006    0.0000 C   0  0  0  0  0  0  0  0  0  8  0  0
    1.2309    2.6032    0.0000 C   0  0  0  0  0  0  0  0  0  9  0  0
    0.4748    3.8987    0.0000 O   0  0  0  0  0  0  0  0  0 10  0  0
    2.7309    2.6102    0.0000 O   0  0  0  0  0  0  0  0  0 11  0  0
    2.9041   -2.3253    0.0000 H   0  0  0  0  0  0  0  0  0  0  0  0
    7.2117   -0.2787    0.0000 O   0  0  0  0  0  0  0  0  0  0  0  0
    7.3755   -1.7697    0.0000 C   0  0  1  0  0  0  0  0  0  0  0  0
    6.0081   -2.3862    0.0000 C   0  0  0  0  0  0  0  0  0  0  0  0
    8.6781   -2.5136    0.0000 C   0  0  0  0  0  0  0  0  0  0  0  0
    9.9806   -3.2575    0.0000 C   0  0  0  0  0  0  0  0  0  0  0  0
    9.4220   -1.2110    0.0000 C   0  0  0  0  0  0  0  0  0  0  0  0
    7.9342   -3.8161    0.0000 O   0  0  0  0  0  0  0  0  0  0  0  0
    7.2186    5.2295    0.0000 C   0  0  0  0  0  0  0  0  0  0  0  0
    7.9747    3.9340    0.0000 C   0  0  0  0  0  0  0  0  0  0  0  0
    9.4747    3.9410    0.0000 C   0  0  0  0  0  0  0  0  0  0  0  0
    7.2308    2.6314    0.0000 C   0  0  0  0  0  0  0  0  0  0  0  0
    5.7308    2.6244    0.0000 C   0  0  0  0  0  0  0  0  0  0  0  0
    7.9869    1.3359    0.0000 O   0  0  0  0  0  0  0  0  0  0  0  0
   -1.0130    1.2936    0.0000 C   0  0  0  0  0  0  0  0  0  0  0  0
   -1.0200    2.7936    0.0000 C   0  0  0  0  0  0  0  0  0  0  0  0
   -1.0059   -0.2064    0.0000 C   0  0  0  0  0  0  0  0  0  0  0  0
   -2.5130    1.2865    0.0000 C   0  0  0  0  0  0  0  0  0  0  0  0
   -3.2569   -0.0160    0.0000 C   0  0  0  0  0  0  0  0  0  0  0  0
    0.6480   -1.0369    0.0000 H   0  0  0  0  0  0  0  0  0  0  0  0
  1  2  2  0  0  0  0
  1  6  1  0  0  0  0
  2  3  1  0  0  0  0
  3  4  2  0  0  0  0
  4  5  1  0  0  0  0
  5  6  2  0  0  0  0
  5 11  1  0  0  0  0
  6  7  1  0  0  0  0
  7  8  2  0  0  0  0
  8  9  1  0  0  0  0
  9 10  2  0  0  0  0
  9 11  1  0  0  0  0
  1 12  1  0  0  0  0
 13 14  1  0  0  0  0
 14 15  1  0  0  0  0
 14 16  1  6  0  0  0
 16 17  1  0  0  0  0
 16 18  1  0  0  0  0
 16 19  1  0  0  0  0
  2 15  1  0  0  0  0
  3 13  1  0  0  0  0
 20 21  1  0  0  0  0
 21 22  2  0  0  0  0
 21 23  1  0  0  0  0
 23 24  1  0  0  0  0
 23 25  1  0  0  0  0
  4 24  1  0  0  0  0
 26 27  1  0  0  0  0
 26 28  1  0  0  0  0
 26 29  1  0  0  0  0
 29 30  2  0  0  0  0
  8 26  1  0  0  0  0
  7 31  1  0  0  0  0
M  END
> <score_KierFlex>
0.516259

$$$$
suggested molecule #641
 MOE2019            2D

 31 33  0  0  1  0  0  0  0  0999 V2000
    3.4992   -1.2833    0.0000 C   0  0  0  0  0  0  0  0  0  1  0  0
    4.9992   -1.2762    0.0000 C   0  0  0  0  0  0  0  0  0  2  0  0
    5.7430    0.0263    0.0000 C   0  0  0  0  0  0  0  0  0  3  0  0
    4.9869    1.3218    0.0000 C   0  0  0  0  0  0  0  0  0  4  0  0
    3.4870    1.3147    0.0000 C   0  0  0  0  0  0  0  0  0  5  0  0
    2.7431    0.0122    0.0000 C   0  0  0  0  0  0  0  0  0  6  0  0
    1.2431    0.0051    0.0000 C   0  0  0  0  0  0  0  0  0  7  0  0
    0.4870    1.3006    0.0000 C   0  0  0  0  0  0  0  0  0  8  0  0
    1.2309    2.6032    0.0000 C   0  0  0  0  0  0  0  0  0  9  0  0
    0.4748    3.8987    0.0000 O   0  0  0  0  0  0  0  0  0 10  0  0
    2.7309    2.6102    0.0000 O   0  0  0  0  0  0  0  0  0 11  0  0
    2.9041   -2.3253    0.0000 H   0  0  0  0  0  0  0  0  0  0  0  0
    7.2117   -0.2787    0.0000 O   0  0  0  0  0  0  0  0  0  0  0  0
    7.3755   -1.7697    0.0000 C   0  0  1  0  0  0  0  0  0  0  0  0
    6.0081   -2.3862    0.0000 C   0  0  0  0  0  0  0  0  0  0  0  0
    8.6781   -2.5136    0.0000 C   0  0  0  0  0  0  0  0  0  0  0  0
    9.9806   -3.2575    0.0000 C   0  0  0  0  0  0  0  0  0  0  0  0
    9.4220   -1.2110    0.0000 C   0  0  0  0  0  0  0  0  0  0  0  0
    7.9342   -3.8161    0.0000 O   0  0  0  0  0  0  0  0  0  0  0  0
    7.2186    5.2295    0.0000 C   0  0  0  0  0  0  0  0  0  0  0  0
    7.9747    3.9340    0.0000 C   0  0  0  0  0  0  0  0  0  0  0  0
    9.4747    3.9410    0.0000 C   0  0  0  0  0  0  0  0  0  0  0  0
    7.2308    2.6314    0.0000 C   0  0  0  0  0  0  0  0  0  0  0  0
    5.7308    2.6244    0.0000 C   0  0  0  0  0  0  0  0  0  0  0  0
    7.9869    1.3359    0.0000 O   0  0  0  0  0  0  0  0  0  0  0  0
   -1.0130    1.2936    0.0000 C   0  0  0  0  0  0  0  0  0  0  0  0
   -1.0200    2.7936    0.0000 C   0  0  0  0  0  0  0  0  0  0  0  0
   -1.0059   -0.2064    0.0000 C   0  0  0  0  0  0  0  0  0  0  0  0
   -2.5130    1.2865    0.0000 C   0  0  0  0  0  0  0  0  0  0  0  0
   -3.2569   -0.0160    0.0000 C   0  0  0  0  0  0  0  0  0  0  0  0
    0.6480   -1.0369    0.0000 H   0  0  0  0  0  0  0  0  0  0  0  0
  1  2  2  0  0  0  0
  1  6  1  0  0  0  0
  2  3  1  0  0  0  0
  3  4  2  0  0  0  0
  4  5  1  0  0  0  0
  5  6  2  0  0  0  0
  5 11  1  0  0  0  0
  6  7  1  0  0  0  0
  7  8  2  0  0  0  0
  8  9  1  0  0  0  0
  9 10  2  0  0  0  0
  9 11  1  0  0  0  0
  1 12  1  0  0  0  0
 13 14  1  0  0  0  0
 14 15  1  0  0  0  0
 14 16  1  6  0  0  0
 16 17  1  0  0  0  0
 16 18  1  0  0  0  0
 16 19  1  0  0  0  0
  2 15  1  0  0  0  0
  3 13  1  0  0  0  0
 20 21  1  0  0  0  0
 21 22  1  0  0  0  0
 21 23  1  0  0  0  0
 23 24  1  0  0  0  0
 23 25  1  0  0  0  0
  4 24  1  0  0  0  0
 26 27  1  0  0  0  0
 26 28  1  0  0  0  0
 26 29  1  0  0  0  0
 29 30  2  0  0  0  0
  8 26  1  0  0  0  0
  7 31  1  0  0  0  0
M  END
> <score_Kier1>
0.517777

$$$$
suggested molecule #642
 MOE2019            2D

 31 33  0  0  1  0  0  0  0  0999 V2000
    3.4992   -1.2833    0.0000 C   0  0  0  0  0  0  0  0  0  1  0  0
    4.9992   -1.2762    0.0000 C   0  0  0  0  0  0  0  0  0  2  0  0
    5.7430    0.0263    0.0000 C   0  0  0  0  0  0  0  0  0  3  0  0
    4.9869    1.3218    0.0000 C   0  0  0  0  0  0  0  0  0  4  0  0
    3.4870    1.3147    0.0000 C   0  0  0  0  0  0  0  0  0  5  0  0
    2.7431    0.0122    0.0000 C   0  0  0  0  0  0  0  0  0  6  0  0
    1.2431    0.0051    0.0000 C   0  0  0  0  0  0  0  0  0  7  0  0
    0.4870    1.3006    0.0000 C   0  0  0  0  0  0  0  0  0  8  0  0
    1.2309    2.6032    0.0000 C   0  0  0  0  0  0  0  0  0  9  0  0
    0.4748    3.8987    0.0000 O   0  0  0  0  0  0  0  0  0 10  0  0
    2.7309    2.6102    0.0000 O   0  0  0  0  0  0  0  0  0 11  0  0
    2.9041   -2.3253    0.0000 H   0  0  0  0  0  0  0  0  0  0  0  0
    7.2117   -0.2787    0.0000 O   0  0  0  0  0  0  0  0  0  0  0  0
    7.3755   -1.7697    0.0000 C   0  0  1  0  0  0  0  0  0  0  0  0
    6.0081   -2.3862    0.0000 C   0  0  0  0  0  0  0  0  0  0  0  0
    8.6781   -2.5136    0.0000 C   0  0  0  0  0  0  0  0  0  0  0  0
    9.9806   -3.2575    0.0000 C   0  0  0  0  0  0  0  0  0  0  0  0
    9.4220   -1.2110    0.0000 C   0  0  0  0  0  0  0  0  0  0  0  0
    7.9342   -3.8161    0.0000 O   0  0  0  0  0  0  0  0  0  0  0  0
    7.2186    5.2295    0.0000 C   0  0  0  0  0  0  0  0  0  0  0  0
    7.9747    3.9340    0.0000 C   0  0  0  0  0  0  0  0  0  0  0  0
    9.4747    3.9410    0.0000 C   0  0  0  0  0  0  0  0  0  0  0  0
    7.2308    2.6314    0.0000 C   0  0  0  0  0  0  0  0  0  0  0  0
    5.7308    2.6244    0.0000 C   0  0  0  0  0  0  0  0  0  0  0  0
    7.9869    1.3359    0.0000 O   0  0  0  0  0  0  0  0  0  0  0  0
   -1.0130    1.2936    0.0000 C   0  0  0  0  0  0  0  0  0  0  0  0
   -1.0200    2.7936    0.0000 C   0  0  0  0  0  0  0  0  0  0  0  0
   -1.0059   -0.2064    0.0000 C   0  0  0  0  0  0  0  0  0  0  0  0
   -2.5130    1.2865    0.0000 C   0  0  0  0  0  0  0  0  0  0  0  0
   -3.2569   -0.0160    0.0000 C   0  0  0  0  0  0  0  0  0  0  0  0
    0.6480   -1.0369    0.0000 H   0  0  0  0  0  0  0  0  0  0  0  0
  1  2  2  0  0  0  0
  1  6  1  0  0  0  0
  2  3  1  0  0  0  0
  3  4  2  0  0  0  0
  4  5  1  0  0  0  0
  5  6  2  0  0  0  0
  5 11  1  0  0  0  0
  6  7  1  0  0  0  0
  7  8  2  0  0  0  0
  8  9  1  0  0  0  0
  9 10  2  0  0  0  0
  9 11  1  0  0  0  0
  1 12  1  0  0  0  0
 13 14  1  0  0  0  0
 14 15  1  0  0  0  0
 14 16  1  6  0  0  0
 16 17  1  0  0  0  0
 16 18  1  0  0  0  0
 16 19  1  0  0  0  0
  2 15  1  0  0  0  0
  3 13  1  0  0  0  0
 20 21  1  0  0  0  0
 21 22  1  0  0  0  0
 21 23  1  0  0  0  0
 23 24  1  0  0  0  0
 23 25  1  0  0  0  0
  4 24  1  0  0  0  0
 26 27  1  0  0  0  0
 26 28  1  0  0  0  0
 26 29  1  0  0  0  0
 29 30  2  0  0  0  0
  8 26  1  0  0  0  0
  7 31  1  0  0  0  0
M  END
> <score_Kier2>
0.51659

$$$$
suggested molecule #643
 MOE2019            2D

 31 33  0  0  1  0  0  0  0  0999 V2000
    3.4992   -1.2833    0.0000 C   0  0  0  0  0  0  0  0  0  1  0  0
    4.9992   -1.2762    0.0000 C   0  0  0  0  0  0  0  0  0  2  0  0
    5.7430    0.0263    0.0000 C   0  0  0  0  0  0  0  0  0  3  0  0
    4.9869    1.3218    0.0000 C   0  0  0  0  0  0  0  0  0  4  0  0
    3.4870    1.3147    0.0000 C   0  0  0  0  0  0  0  0  0  5  0  0
    2.7431    0.0122    0.0000 C   0  0  0  0  0  0  0  0  0  6  0  0
    1.2431    0.0051    0.0000 C   0  0  0  0  0  0  0  0  0  7  0  0
    0.4870    1.3006    0.0000 C   0  0  0  0  0  0  0  0  0  8  0  0
    1.2309    2.6032    0.0000 C   0  0  0  0  0  0  0  0  0  9  0  0
    0.4748    3.8987    0.0000 O   0  0  0  0  0  0  0  0  0 10  0  0
    2.7309    2.6102    0.0000 O   0  0  0  0  0  0  0  0  0 11  0  0
    2.9041   -2.3253    0.0000 H   0  0  0  0  0  0  0  0  0  0  0  0
    7.2117   -0.2787    0.0000 O   0  0  0  0  0  0  0  0  0  0  0  0
    7.3755   -1.7697    0.0000 C   0  0  1  0  0  0  0  0  0  0  0  0
    6.0081   -2.3862    0.0000 C   0  0  0  0  0  0  0  0  0  0  0  0
    8.6781   -2.5136    0.0000 C   0  0  0  0  0  0  0  0  0  0  0  0
    9.9806   -3.2575    0.0000 C   0  0  0  0  0  0  0  0  0  0  0  0
    9.4220   -1.2110    0.0000 C   0  0  0  0  0  0  0  0  0  0  0  0
    7.9342   -3.8161    0.0000 O   0  0  0  0  0  0  0  0  0  0  0  0
    7.2186    5.2295    0.0000 C   0  0  0  0  0  0  0  0  0  0  0  0
    7.9747    3.9340    0.0000 C   0  0  0  0  0  0  0  0  0  0  0  0
    9.4747    3.9410    0.0000 C   0  0  0  0  0  0  0  0  0  0  0  0
    7.2308    2.6314    0.0000 C   0  0  0  0  0  0  0  0  0  0  0  0
    5.7308    2.6244    0.0000 C   0  0  0  0  0  0  0  0  0  0  0  0
    7.9869    1.3359    0.0000 O   0  0  0  0  0  0  0  0  0  0  0  0
   -1.0130    1.2936    0.0000 C   0  0  0  0  0  0  0  0  0  0  0  0
   -1.0200    2.7936    0.0000 C   0  0  0  0  0  0  0  0  0  0  0  0
   -1.0059   -0.2064    0.0000 C   0  0  0  0  0  0  0  0  0  0  0  0
   -2.5130    1.2865    0.0000 C   0  0  0  0  0  0  0  0  0  0  0  0
   -3.2569   -0.0160    0.0000 C   0  0  0  0  0  0  0  0  0  0  0  0
    0.6480   -1.0369    0.0000 H   0  0  0  0  0  0  0  0  0  0  0  0
  1  2  2  0  0  0  0
  1  6  1  0  0  0  0
  2  3  1  0  0  0  0
  3  4  2  0  0  0  0
  4  5  1  0  0  0  0
  5  6  2  0  0  0  0
  5 11  1  0  0  0  0
  6  7  1  0  0  0  0
  7  8  2  0  0  0  0
  8  9  1  0  0  0  0
  9 10  2  0  0  0  0
  9 11  1  0  0  0  0
  1 12  1  0  0  0  0
 13 14  1  0  0  0  0
 14 15  1  0  0  0  0
 14 16  1  6  0  0  0
 16 17  1  0  0  0  0
 16 18  1  0  0  0  0
 16 19  1  0  0  0  0
  2 15  1  0  0  0  0
  3 13  1  0  0  0  0
 20 21  1  0  0  0  0
 21 22  1  0  0  0  0
 21 23  1  0  0  0  0
 23 24  1  0  0  0  0
 23 25  1  0  0  0  0
  4 24  1  0  0  0  0
 26 27  1  0  0  0  0
 26 28  1  0  0  0  0
 26 29  1  0  0  0  0
 29 30  2  0  0  0  0
  8 26  1  0  0  0  0
  7 31  1  0  0  0  0
M  END
> <score_KierA1>
0.517605

$$$$
suggested molecule #644
 MOE2019            2D

 31 33  0  0  1  0  0  0  0  0999 V2000
    3.4992   -1.2833    0.0000 C   0  0  0  0  0  0  0  0  0  1  0  0
    4.9992   -1.2762    0.0000 C   0  0  0  0  0  0  0  0  0  2  0  0
    5.7430    0.0263    0.0000 C   0  0  0  0  0  0  0  0  0  3  0  0
    4.9869    1.3218    0.0000 C   0  0  0  0  0  0  0  0  0  4  0  0
    3.4870    1.3147    0.0000 C   0  0  0  0  0  0  0  0  0  5  0  0
    2.7431    0.0122    0.0000 C   0  0  0  0  0  0  0  0  0  6  0  0
    1.2431    0.0051    0.0000 C   0  0  0  0  0  0  0  0  0  7  0  0
    0.4870    1.3006    0.0000 C   0  0  0  0  0  0  0  0  0  8  0  0
    1.2309    2.6032    0.0000 C   0  0  0  0  0  0  0  0  0  9  0  0
    0.4748    3.8987    0.0000 O   0  0  0  0  0  0  0  0  0 10  0  0
    2.7309    2.6102    0.0000 O   0  0  0  0  0  0  0  0  0 11  0  0
    2.9041   -2.3253    0.0000 H   0  0  0  0  0  0  0  0  0  0  0  0
    7.2117   -0.2787    0.0000 O   0  0  0  0  0  0  0  0  0  0  0  0
    7.3755   -1.7697    0.0000 C   0  0  1  0  0  0  0  0  0  0  0  0
    6.0081   -2.3862    0.0000 C   0  0  0  0  0  0  0  0  0  0  0  0
    8.6781   -2.5136    0.0000 C   0  0  0  0  0  0  0  0  0  0  0  0
    9.9806   -3.2575    0.0000 C   0  0  0  0  0  0  0  0  0  0  0  0
    9.4220   -1.2110    0.0000 C   0  0  0  0  0  0  0  0  0  0  0  0
    7.9342   -3.8161    0.0000 O   0  0  0  0  0  0  0  0  0  0  0  0
    7.2186    5.2295    0.0000 C   0  0  0  0  0  0  0  0  0  0  0  0
    7.9747    3.9340    0.0000 C   0  0  0  0  0  0  0  0  0  0  0  0
    9.4747    3.9410    0.0000 C   0  0  0  0  0  0  0  0  0  0  0  0
    7.2308    2.6314    0.0000 C   0  0  0  0  0  0  0  0  0  0  0  0
    5.7308    2.6244    0.0000 C   0  0  0  0  0  0  0  0  0  0  0  0
    7.9869    1.3359    0.0000 O   0  0  0  0  0  0  0  0  0  0  0  0
   -1.0130    1.2936    0.0000 C   0  0  0  0  0  0  0  0  0  0  0  0
   -1.0200    2.7936    0.0000 C   0  0  0  0  0  0  0  0  0  0  0  0
   -1.0059   -0.2064    0.0000 C   0  0  0  0  0  0  0  0  0  0  0  0
   -2.5130    1.2865    0.0000 C   0  0  0  0  0  0  0  0  0  0  0  0
   -3.2569   -0.0160    0.0000 C   0  0  0  0  0  0  0  0  0  0  0  0
    0.6480   -1.0369    0.0000 H   0  0  0  0  0  0  0  0  0  0  0  0
  1  2  2  0  0  0  0
  1  6  1  0  0  0  0
  2  3  1  0  0  0  0
  3  4  2  0  0  0  0
  4  5  1  0  0  0  0
  5  6  2  0  0  0  0
  5 11  1  0  0  0  0
  6  7  1  0  0  0  0
  7  8  2  0  0  0  0
  8  9  1  0  0  0  0
  9 10  2  0  0  0  0
  9 11  1  0  0  0  0
  1 12  1  0  0  0  0
 13 14  1  0  0  0  0
 14 15  1  0  0  0  0
 14 16  1  6  0  0  0
 16 17  1  0  0  0  0
 16 18  1  0  0  0  0
 16 19  1  0  0  0  0
  2 15  1  0  0  0  0
  3 13  1  0  0  0  0
 20 21  1  0  0  0  0
 21 22  1  0  0  0  0
 21 23  1  0  0  0  0
 23 24  1  0  0  0  0
 23 25  1  0  0  0  0
  4 24  1  0  0  0  0
 26 27  1  0  0  0  0
 26 28  1  0  0  0  0
 26 29  1  0  0  0  0
 29 30  2  0  0  0  0
  8 26  1  0  0  0  0
  7 31  1  0  0  0  0
M  END
> <score_KierA2>
0.51678

$$$$
suggested molecule #645
 MOE2019            2D

 45 47  0  0  1  0  0  0  0  0999 V2000
    3.4992   -1.2833    0.0000 C   0  0  0  0  0  0  0  0  0  1  0  0
    4.9992   -1.2762    0.0000 C   0  0  0  0  0  0  0  0  0  2  0  0
    5.7430    0.0263    0.0000 C   0  0  0  0  0  0  0  0  0  3  0  0
    4.9869    1.3218    0.0000 C   0  0  0  0  0  0  0  0  0  4  0  0
    3.4870    1.3147    0.0000 C   0  0  0  0  0  0  0  0  0  5  0  0
    2.7431    0.0122    0.0000 C   0  0  0  0  0  0  0  0  0  6  0  0
    1.2431    0.0051    0.0000 C   0  0  0  0  0  0  0  0  0  7  0  0
    0.4870    1.3006    0.0000 C   0  0  0  0  0  0  0  0  0  8  0  0
    1.2309    2.6032    0.0000 C   0  0  0  0  0  0  0  0  0  9  0  0
    0.4748    3.8987    0.0000 O   0  0  0  0  0  0  0  0  0 10  0  0
    2.7309    2.6102    0.0000 O   0  0  0  0  0  0  0  0  0 11  0  0
    2.9041   -2.3253    0.0000 H   0  0  0  0  0  0  0  0  0  0  0  0
    7.2117   -0.2787    0.0000 O   0  0  0  0  0  0  0  0  0  0  0  0
    7.3755   -1.7697    0.0000 C   0  0  1  0  0  0  0  0  0  0  0  0
    6.0081   -2.3862    0.0000 C   0  0  0  0  0  0  0  0  0  0  0  0
    8.6781   -2.5136    0.0000 C   0  0  0  0  0  0  0  0  0  0  0  0
    9.9806   -3.2575    0.0000 C   0  0  0  0  0  0  0  0  0  0  0  0
    7.9342   -3.8161    0.0000 C   0  0  0  0  0  0  0  0  0  0  0  0
    9.4220   -1.2110    0.0000 O   0  0  0  0  0  0  0  0  0  0  0  0
    4.9503    9.1159    0.0000 C   0  0  0  0  0  0  0  0  0  0  0  0
    5.7064    7.8204    0.0000 C   0  0  0  0  0  0  0  0  0  0  0  0
    4.9625    6.5179    0.0000 C   0  0  0  0  0  0  0  0  0  0  0  0
    5.7186    5.2224    0.0000 C   0  0  0  0  0  0  0  0  0  0  0  0
    7.2186    5.2295    0.0000 O   0  0  0  0  0  0  0  0  0  0  0  0
    4.9747    3.9198    0.0000 O   0  0  0  0  0  0  0  0  0  0  0  0
    5.7308    2.6244    0.0000 C   0  0  0  0  0  0  0  0  0  0  0  0
    7.2308    2.6314    0.0000 C   0  0  0  0  0  0  0  0  0  0  0  0
    7.9869    1.3359    0.0000 C   0  0  0  0  0  0  0  0  0  0  0  0
    9.2824    2.0920    0.0000 O   0  0  0  0  0  0  0  0  0  0  0  0
    6.6914    0.5798    0.0000 C   0  0  0  0  0  0  0  0  0  0  0  0
    8.7430    0.0404    0.0000 C   0  0  0  0  0  0  0  0  0  0  0  0
    7.9747    3.9340    0.0000 O   0  0  0  0  0  0  0  0  0  0  0  0
    9.4747    3.9410    0.0000 C   0  0  0  0  0  0  0  0  0  0  0  0
   10.2186    5.2436    0.0000 O   0  0  0  0  0  0  0  0  0  0  0  0
   10.2308    2.6455    0.0000 C   0  0  0  0  0  0  0  0  0  0  0  0
   11.7308    2.6526    0.0000 C   0  0  0  0  0  0  0  0  0  0  0  0
   12.4869    1.3571    0.0000 C   0  0  0  0  0  0  0  0  0  0  0  0
   12.4746    3.9551    0.0000 C   0  0  0  0  0  0  0  0  0  0  0  0
    7.2064    7.8275    0.0000 C   0  0  0  0  0  0  0  0  0  0  0  0
   -1.0130    1.2936    0.0000 C   0  0  0  0  0  0  0  0  0  0  0  0
   -1.0200    2.7936    0.0000 C   0  0  0  0  0  0  0  0  0  0  0  0
   -1.0059   -0.2064    0.0000 C   0  0  0  0  0  0  0  0  0  0  0  0
   -2.5130    1.2865    0.0000 C   0  0  0  0  0  0  0  0  0  0  0  0
   -3.2569   -0.0160    0.0000 C   0  0  0  0  0  0  0  0  0  0  0  0
    0.6480   -1.0369    0.0000 H   0  0  0  0  0  0  0  0  0  0  0  0
  1  2  2  0  0  0  0
  1  6  1  0  0  0  0
  2  3  1  0  0  0  0
  3  4  2  0  0  0  0
  4  5  1  0  0  0  0
  5  6  2  0  0  0  0
  5 11  1  0  0  0  0
  6  7  1  0  0  0  0
  7  8  2  0  0  0  0
  8  9  1  0  0  0  0
  9 10  2  0  0  0  0
  9 11  1  0  0  0  0
  1 12  1  0  0  0  0
 13 14  1  0  0  0  0
 14 15  1  0  0  0  0
 14 16  1  6  0  0  0
 16 17  1  0  0  0  0
 16 18  1  0  0  0  0
 16 19  1  0  0  0  0
  2 15  1  0  0  0  0
  3 13  1  0  0  0  0
 20 21  1  0  0  0  0
 21 22  2  0  0  0  0
 21 39  1  0  0  0  0
 22 23  1  0  0  0  0
 23 24  2  0  0  0  0
 23 25  1  0  0  0  0
 25 26  1  0  0  0  0
 26 27  1  0  0  0  0
 27 28  1  0  0  0  0
 27 32  1  0  0  0  0
 28 29  1  0  0  0  0
 28 30  1  0  0  0  0
 28 31  1  0  0  0  0
 32 33  1  0  0  0  0
 33 34  2  0  0  0  0
 33 35  1  0  0  0  0
 35 36  2  0  0  0  0
 36 37  1  0  0  0  0
 36 38  1  0  0  0  0
  4 26  1  0  0  0  0
 40 41  1  0  0  0  0
 40 42  1  0  0  0  0
 40 43  1  0  0  0  0
 43 44  2  0  0  0  0
  8 40  1  0  0  0  0
  7 45  1  0  0  0  0
M  END
> <score_Kier1>
0.51775

$$$$
suggested molecule #646
 MOE2019            2D

 45 47  0  0  1  0  0  0  0  0999 V2000
    3.4992   -1.2833    0.0000 C   0  0  0  0  0  0  0  0  0  1  0  0
    4.9992   -1.2762    0.0000 C   0  0  0  0  0  0  0  0  0  2  0  0
    5.7430    0.0263    0.0000 C   0  0  0  0  0  0  0  0  0  3  0  0
    4.9869    1.3218    0.0000 C   0  0  0  0  0  0  0  0  0  4  0  0
    3.4870    1.3147    0.0000 C   0  0  0  0  0  0  0  0  0  5  0  0
    2.7431    0.0122    0.0000 C   0  0  0  0  0  0  0  0  0  6  0  0
    1.2431    0.0051    0.0000 C   0  0  0  0  0  0  0  0  0  7  0  0
    0.4870    1.3006    0.0000 C   0  0  0  0  0  0  0  0  0  8  0  0
    1.2309    2.6032    0.0000 C   0  0  0  0  0  0  0  0  0  9  0  0
    0.4748    3.8987    0.0000 O   0  0  0  0  0  0  0  0  0 10  0  0
    2.7309    2.6102    0.0000 O   0  0  0  0  0  0  0  0  0 11  0  0
    2.9041   -2.3253    0.0000 H   0  0  0  0  0  0  0  0  0  0  0  0
    7.2117   -0.2787    0.0000 O   0  0  0  0  0  0  0  0  0  0  0  0
    7.3755   -1.7697    0.0000 C   0  0  1  0  0  0  0  0  0  0  0  0
    6.0081   -2.3862    0.0000 C   0  0  0  0  0  0  0  0  0  0  0  0
    8.6781   -2.5136    0.0000 C   0  0  0  0  0  0  0  0  0  0  0  0
    9.9806   -3.2575    0.0000 C   0  0  0  0  0  0  0  0  0  0  0  0
    7.9342   -3.8161    0.0000 C   0  0  0  0  0  0  0  0  0  0  0  0
    9.4220   -1.2110    0.0000 O   0  0  0  0  0  0  0  0  0  0  0  0
    4.9503    9.1159    0.0000 C   0  0  0  0  0  0  0  0  0  0  0  0
    5.7064    7.8204    0.0000 C   0  0  0  0  0  0  0  0  0  0  0  0
    4.9625    6.5179    0.0000 C   0  0  0  0  0  0  0  0  0  0  0  0
    5.7186    5.2224    0.0000 C   0  0  0  0  0  0  0  0  0  0  0  0
    7.2186    5.2295    0.0000 O   0  0  0  0  0  0  0  0  0  0  0  0
    4.9747    3.9198    0.0000 O   0  0  0  0  0  0  0  0  0  0  0  0
    5.7308    2.6244    0.0000 C   0  0  0  0  0  0  0  0  0  0  0  0
    7.2308    2.6314    0.0000 C   0  0  0  0  0  0  0  0  0  0  0  0
    7.9869    1.3359    0.0000 C   0  0  0  0  0  0  0  0  0  0  0  0
    9.2824    2.0920    0.0000 O   0  0  0  0  0  0  0  0  0  0  0  0
    6.6914    0.5798    0.0000 C   0  0  0  0  0  0  0  0  0  0  0  0
    8.7430    0.0404    0.0000 C   0  0  0  0  0  0  0  0  0  0  0  0
    7.9747    3.9340    0.0000 O   0  0  0  0  0  0  0  0  0  0  0  0
    9.4747    3.9410    0.0000 C   0  0  0  0  0  0  0  0  0  0  0  0
   10.2186    5.2436    0.0000 O   0  0  0  0  0  0  0  0  0  0  0  0
   10.2308    2.6455    0.0000 C   0  0  0  0  0  0  0  0  0  0  0  0
   11.7308    2.6526    0.0000 C   0  0  0  0  0  0  0  0  0  0  0  0
   12.4869    1.3571    0.0000 C   0  0  0  0  0  0  0  0  0  0  0  0
   12.4746    3.9551    0.0000 C   0  0  0  0  0  0  0  0  0  0  0  0
    7.2064    7.8275    0.0000 C   0  0  0  0  0  0  0  0  0  0  0  0
   -1.0130    1.2936    0.0000 C   0  0  0  0  0  0  0  0  0  0  0  0
   -1.0200    2.7936    0.0000 C   0  0  0  0  0  0  0  0  0  0  0  0
   -1.0059   -0.2064    0.0000 C   0  0  0  0  0  0  0  0  0  0  0  0
   -2.5130    1.2865    0.0000 C   0  0  0  0  0  0  0  0  0  0  0  0
   -3.2569   -0.0160    0.0000 C   0  0  0  0  0  0  0  0  0  0  0  0
    0.6480   -1.0369    0.0000 H   0  0  0  0  0  0  0  0  0  0  0  0
  1  2  2  0  0  0  0
  1  6  1  0  0  0  0
  2  3  1  0  0  0  0
  3  4  2  0  0  0  0
  4  5  1  0  0  0  0
  5  6  2  0  0  0  0
  5 11  1  0  0  0  0
  6  7  1  0  0  0  0
  7  8  2  0  0  0  0
  8  9  1  0  0  0  0
  9 10  2  0  0  0  0
  9 11  1  0  0  0  0
  1 12  1  0  0  0  0
 13 14  1  0  0  0  0
 14 15  1  0  0  0  0
 14 16  1  6  0  0  0
 16 17  1  0  0  0  0
 16 18  1  0  0  0  0
 16 19  1  0  0  0  0
  2 15  1  0  0  0  0
  3 13  1  0  0  0  0
 20 21  1  0  0  0  0
 21 22  2  0  0  0  0
 21 39  1  0  0  0  0
 22 23  1  0  0  0  0
 23 24  2  0  0  0  0
 23 25  1  0  0  0  0
 25 26  1  0  0  0  0
 26 27  1  0  0  0  0
 27 28  1  0  0  0  0
 27 32  1  0  0  0  0
 28 29  1  0  0  0  0
 28 30  1  0  0  0  0
 28 31  1  0  0  0  0
 32 33  1  0  0  0  0
 33 34  2  0  0  0  0
 33 35  1  0  0  0  0
 35 36  2  0  0  0  0
 36 37  1  0  0  0  0
 36 38  1  0  0  0  0
  4 26  1  0  0  0  0
 40 41  1  0  0  0  0
 40 42  1  0  0  0  0
 40 43  1  0  0  0  0
 43 44  2  0  0  0  0
  8 40  1  0  0  0  0
  7 45  1  0  0  0  0
M  END
> <score_Kier2>
0.516561

$$$$
suggested molecule #647
 MOE2019            2D

 45 47  0  0  1  0  0  0  0  0999 V2000
    3.4992   -1.2833    0.0000 C   0  0  0  0  0  0  0  0  0  1  0  0
    4.9992   -1.2762    0.0000 C   0  0  0  0  0  0  0  0  0  2  0  0
    5.7430    0.0263    0.0000 C   0  0  0  0  0  0  0  0  0  3  0  0
    4.9869    1.3218    0.0000 C   0  0  0  0  0  0  0  0  0  4  0  0
    3.4870    1.3147    0.0000 C   0  0  0  0  0  0  0  0  0  5  0  0
    2.7431    0.0122    0.0000 C   0  0  0  0  0  0  0  0  0  6  0  0
    1.2431    0.0051    0.0000 C   0  0  0  0  0  0  0  0  0  7  0  0
    0.4870    1.3006    0.0000 C   0  0  0  0  0  0  0  0  0  8  0  0
    1.2309    2.6032    0.0000 C   0  0  0  0  0  0  0  0  0  9  0  0
    0.4748    3.8987    0.0000 O   0  0  0  0  0  0  0  0  0 10  0  0
    2.7309    2.6102    0.0000 O   0  0  0  0  0  0  0  0  0 11  0  0
    2.9041   -2.3253    0.0000 H   0  0  0  0  0  0  0  0  0  0  0  0
    7.2117   -0.2787    0.0000 O   0  0  0  0  0  0  0  0  0  0  0  0
    7.3755   -1.7697    0.0000 C   0  0  1  0  0  0  0  0  0  0  0  0
    6.0081   -2.3862    0.0000 C   0  0  0  0  0  0  0  0  0  0  0  0
    8.6781   -2.5136    0.0000 C   0  0  0  0  0  0  0  0  0  0  0  0
    9.9806   -3.2575    0.0000 C   0  0  0  0  0  0  0  0  0  0  0  0
    7.9342   -3.8161    0.0000 C   0  0  0  0  0  0  0  0  0  0  0  0
    9.4220   -1.2110    0.0000 O   0  0  0  0  0  0  0  0  0  0  0  0
    4.9503    9.1159    0.0000 C   0  0  0  0  0  0  0  0  0  0  0  0
    5.7064    7.8204    0.0000 C   0  0  0  0  0  0  0  0  0  0  0  0
    4.9625    6.5179    0.0000 C   0  0  0  0  0  0  0  0  0  0  0  0
    5.7186    5.2224    0.0000 C   0  0  0  0  0  0  0  0  0  0  0  0
    7.2186    5.2295    0.0000 O   0  0  0  0  0  0  0  0  0  0  0  0
    4.9747    3.9198    0.0000 O   0  0  0  0  0  0  0  0  0  0  0  0
    5.7308    2.6244    0.0000 C   0  0  0  0  0  0  0  0  0  0  0  0
    7.2308    2.6314    0.0000 C   0  0  0  0  0  0  0  0  0  0  0  0
    7.9869    1.3359    0.0000 C   0  0  0  0  0  0  0  0  0  0  0  0
    9.2824    2.0920    0.0000 O   0  0  0  0  0  0  0  0  0  0  0  0
    6.6914    0.5798    0.0000 C   0  0  0  0  0  0  0  0  0  0  0  0
    8.7430    0.0404    0.0000 C   0  0  0  0  0  0  0  0  0  0  0  0
    7.9747    3.9340    0.0000 O   0  0  0  0  0  0  0  0  0  0  0  0
    9.4747    3.9410    0.0000 C   0  0  0  0  0  0  0  0  0  0  0  0
   10.2186    5.2436    0.0000 O   0  0  0  0  0  0  0  0  0  0  0  0
   10.2308    2.6455    0.0000 C   0  0  0  0  0  0  0  0  0  0  0  0
   11.7308    2.6526    0.0000 C   0  0  0  0  0  0  0  0  0  0  0  0
   12.4869    1.3571    0.0000 C   0  0  0  0  0  0  0  0  0  0  0  0
   12.4746    3.9551    0.0000 C   0  0  0  0  0  0  0  0  0  0  0  0
    7.2064    7.8275    0.0000 C   0  0  0  0  0  0  0  0  0  0  0  0
   -1.0130    1.2936    0.0000 C   0  0  0  0  0  0  0  0  0  0  0  0
   -1.0200    2.7936    0.0000 C   0  0  0  0  0  0  0  0  0  0  0  0
   -1.0059   -0.2064    0.0000 C   0  0  0  0  0  0  0  0  0  0  0  0
   -2.5130    1.2865    0.0000 C   0  0  0  0  0  0  0  0  0  0  0  0
   -3.2569   -0.0160    0.0000 C   0  0  0  0  0  0  0  0  0  0  0  0
    0.6480   -1.0369    0.0000 H   0  0  0  0  0  0  0  0  0  0  0  0
  1  2  2  0  0  0  0
  1  6  1  0  0  0  0
  2  3  1  0  0  0  0
  3  4  2  0  0  0  0
  4  5  1  0  0  0  0
  5  6  2  0  0  0  0
  5 11  1  0  0  0  0
  6  7  1  0  0  0  0
  7  8  2  0  0  0  0
  8  9  1  0  0  0  0
  9 10  2  0  0  0  0
  9 11  1  0  0  0  0
  1 12  1  0  0  0  0
 13 14  1  0  0  0  0
 14 15  1  0  0  0  0
 14 16  1  6  0  0  0
 16 17  1  0  0  0  0
 16 18  1  0  0  0  0
 16 19  1  0  0  0  0
  2 15  1  0  0  0  0
  3 13  1  0  0  0  0
 20 21  1  0  0  0  0
 21 22  2  0  0  0  0
 21 39  1  0  0  0  0
 22 23  1  0  0  0  0
 23 24  2  0  0  0  0
 23 25  1  0  0  0  0
 25 26  1  0  0  0  0
 26 27  1  0  0  0  0
 27 28  1  0  0  0  0
 27 32  1  0  0  0  0
 28 29  1  0  0  0  0
 28 30  1  0  0  0  0
 28 31  1  0  0  0  0
 32 33  1  0  0  0  0
 33 34  2  0  0  0  0
 33 35  1  0  0  0  0
 35 36  2  0  0  0  0
 36 37  1  0  0  0  0
 36 38  1  0  0  0  0
  4 26  1  0  0  0  0
 40 41  1  0  0  0  0
 40 42  1  0  0  0  0
 40 43  1  0  0  0  0
 43 44  2  0  0  0  0
  8 40  1  0  0  0  0
  7 45  1  0  0  0  0
M  END
> <score_KierA1>
0.517582

$$$$
suggested molecule #648
 MOE2019            2D

 45 47  0  0  1  0  0  0  0  0999 V2000
    3.4992   -1.2833    0.0000 C   0  0  0  0  0  0  0  0  0  1  0  0
    4.9992   -1.2762    0.0000 C   0  0  0  0  0  0  0  0  0  2  0  0
    5.7430    0.0263    0.0000 C   0  0  0  0  0  0  0  0  0  3  0  0
    4.9869    1.3218    0.0000 C   0  0  0  0  0  0  0  0  0  4  0  0
    3.4870    1.3147    0.0000 C   0  0  0  0  0  0  0  0  0  5  0  0
    2.7431    0.0122    0.0000 C   0  0  0  0  0  0  0  0  0  6  0  0
    1.2431    0.0051    0.0000 C   0  0  0  0  0  0  0  0  0  7  0  0
    0.4870    1.3006    0.0000 C   0  0  0  0  0  0  0  0  0  8  0  0
    1.2309    2.6032    0.0000 C   0  0  0  0  0  0  0  0  0  9  0  0
    0.4748    3.8987    0.0000 O   0  0  0  0  0  0  0  0  0 10  0  0
    2.7309    2.6102    0.0000 O   0  0  0  0  0  0  0  0  0 11  0  0
    2.9041   -2.3253    0.0000 H   0  0  0  0  0  0  0  0  0  0  0  0
    7.2117   -0.2787    0.0000 O   0  0  0  0  0  0  0  0  0  0  0  0
    7.3755   -1.7697    0.0000 C   0  0  1  0  0  0  0  0  0  0  0  0
    6.0081   -2.3862    0.0000 C   0  0  0  0  0  0  0  0  0  0  0  0
    8.6781   -2.5136    0.0000 C   0  0  0  0  0  0  0  0  0  0  0  0
    9.9806   -3.2575    0.0000 C   0  0  0  0  0  0  0  0  0  0  0  0
    7.9342   -3.8161    0.0000 C   0  0  0  0  0  0  0  0  0  0  0  0
    9.4220   -1.2110    0.0000 O   0  0  0  0  0  0  0  0  0  0  0  0
    4.9503    9.1159    0.0000 C   0  0  0  0  0  0  0  0  0  0  0  0
    5.7064    7.8204    0.0000 C   0  0  0  0  0  0  0  0  0  0  0  0
    4.9625    6.5179    0.0000 C   0  0  0  0  0  0  0  0  0  0  0  0
    5.7186    5.2224    0.0000 C   0  0  0  0  0  0  0  0  0  0  0  0
    7.2186    5.2295    0.0000 O   0  0  0  0  0  0  0  0  0  0  0  0
    4.9747    3.9198    0.0000 O   0  0  0  0  0  0  0  0  0  0  0  0
    5.7308    2.6244    0.0000 C   0  0  0  0  0  0  0  0  0  0  0  0
    7.2308    2.6314    0.0000 C   0  0  0  0  0  0  0  0  0  0  0  0
    7.9869    1.3359    0.0000 C   0  0  0  0  0  0  0  0  0  0  0  0
    9.2824    2.0920    0.0000 O   0  0  0  0  0  0  0  0  0  0  0  0
    6.6914    0.5798    0.0000 C   0  0  0  0  0  0  0  0  0  0  0  0
    8.7430    0.0404    0.0000 C   0  0  0  0  0  0  0  0  0  0  0  0
    7.9747    3.9340    0.0000 O   0  0  0  0  0  0  0  0  0  0  0  0
    9.4747    3.9410    0.0000 C   0  0  0  0  0  0  0  0  0  0  0  0
   10.2186    5.2436    0.0000 O   0  0  0  0  0  0  0  0  0  0  0  0
   10.2308    2.6455    0.0000 C   0  0  0  0  0  0  0  0  0  0  0  0
   11.7308    2.6526    0.0000 C   0  0  0  0  0  0  0  0  0  0  0  0
   12.4869    1.3571    0.0000 C   0  0  0  0  0  0  0  0  0  0  0  0
   12.4746    3.9551    0.0000 C   0  0  0  0  0  0  0  0  0  0  0  0
    7.2064    7.8275    0.0000 C   0  0  0  0  0  0  0  0  0  0  0  0
   -1.0130    1.2936    0.0000 C   0  0  0  0  0  0  0  0  0  0  0  0
   -1.0200    2.7936    0.0000 C   0  0  0  0  0  0  0  0  0  0  0  0
   -1.0059   -0.2064    0.0000 C   0  0  0  0  0  0  0  0  0  0  0  0
   -2.5130    1.2865    0.0000 C   0  0  0  0  0  0  0  0  0  0  0  0
   -3.2569   -0.0160    0.0000 C   0  0  0  0  0  0  0  0  0  0  0  0
    0.6480   -1.0369    0.0000 H   0  0  0  0  0  0  0  0  0  0  0  0
  1  2  2  0  0  0  0
  1  6  1  0  0  0  0
  2  3  1  0  0  0  0
  3  4  2  0  0  0  0
  4  5  1  0  0  0  0
  5  6  2  0  0  0  0
  5 11  1  0  0  0  0
  6  7  1  0  0  0  0
  7  8  2  0  0  0  0
  8  9  1  0  0  0  0
  9 10  2  0  0  0  0
  9 11  1  0  0  0  0
  1 12  1  0  0  0  0
 13 14  1  0  0  0  0
 14 15  1  0  0  0  0
 14 16  1  6  0  0  0
 16 17  1  0  0  0  0
 16 18  1  0  0  0  0
 16 19  1  0  0  0  0
  2 15  1  0  0  0  0
  3 13  1  0  0  0  0
 20 21  1  0  0  0  0
 21 22  2  0  0  0  0
 21 39  1  0  0  0  0
 22 23  1  0  0  0  0
 23 24  2  0  0  0  0
 23 25  1  0  0  0  0
 25 26  1  0  0  0  0
 26 27  1  0  0  0  0
 27 28  1  0  0  0  0
 27 32  1  0  0  0  0
 28 29  1  0  0  0  0
 28 30  1  0  0  0  0
 28 31  1  0  0  0  0
 32 33  1  0  0  0  0
 33 34  2  0  0  0  0
 33 35  1  0  0  0  0
 35 36  2  0  0  0  0
 36 37  1  0  0  0  0
 36 38  1  0  0  0  0
  4 26  1  0  0  0  0
 40 41  1  0  0  0  0
 40 42  1  0  0  0  0
 40 43  1  0  0  0  0
 43 44  2  0  0  0  0
  8 40  1  0  0  0  0
  7 45  1  0  0  0  0
M  END
> <score_KierA2>
0.516754

$$$$
suggested molecule #649
 MOE2019            2D

 45 47  0  0  1  0  0  0  0  0999 V2000
    3.4992   -1.2833    0.0000 C   0  0  0  0  0  0  0  0  0  1  0  0
    4.9992   -1.2762    0.0000 C   0  0  0  0  0  0  0  0  0  2  0  0
    5.7430    0.0263    0.0000 C   0  0  0  0  0  0  0  0  0  3  0  0
    4.9869    1.3218    0.0000 C   0  0  0  0  0  0  0  0  0  4  0  0
    3.4870    1.3147    0.0000 C   0  0  0  0  0  0  0  0  0  5  0  0
    2.7431    0.0122    0.0000 C   0  0  0  0  0  0  0  0  0  6  0  0
    1.2431    0.0051    0.0000 C   0  0  0  0  0  0  0  0  0  7  0  0
    0.4870    1.3006    0.0000 C   0  0  0  0  0  0  0  0  0  8  0  0
    1.2309    2.6032    0.0000 C   0  0  0  0  0  0  0  0  0  9  0  0
    0.4748    3.8987    0.0000 O   0  0  0  0  0  0  0  0  0 10  0  0
    2.7309    2.6102    0.0000 O   0  0  0  0  0  0  0  0  0 11  0  0
    2.9041   -2.3253    0.0000 H   0  0  0  0  0  0  0  0  0  0  0  0
    7.2117   -0.2787    0.0000 O   0  0  0  0  0  0  0  0  0  0  0  0
    7.3755   -1.7697    0.0000 C   0  0  1  0  0  0  0  0  0  0  0  0
    6.0081   -2.3862    0.0000 C   0  0  0  0  0  0  0  0  0  0  0  0
    8.6781   -2.5136    0.0000 C   0  0  0  0  0  0  0  0  0  0  0  0
    7.9342   -3.8161    0.0000 C   0  0  0  0  0  0  0  0  0  0  0  0
    9.9806   -3.2575    0.0000 C   0  0  0  0  0  0  0  0  0  0  0  0
    9.4220   -1.2110    0.0000 O   0  0  0  0  0  0  0  0  0  0  0  0
   12.9746    3.9575    0.0000 C   0  0  0  0  0  0  0  0  0  0  0  0
   12.2307    2.6549    0.0000 C   0  0  0  0  0  0  0  0  0  0  0  0
   12.9869    1.3594    0.0000 C   0  0  0  0  0  0  0  0  0  0  0  0
   10.7308    2.6479    0.0000 C   0  0  0  0  0  0  0  0  0  0  0  0
    9.9869    1.3453    0.0000 C   0  0  0  0  0  0  0  0  0  0  0  0
   10.7430    0.0498    0.0000 O   0  0  0  0  0  0  0  0  0  0  0  0
    8.4869    1.3383    0.0000 O   0  0  0  0  0  0  0  0  0  0  0  0
    7.7308    2.6338    0.0000 C   0  0  0  0  0  0  0  0  0  0  0  0
    5.7308    2.6244    0.0000 C   0  0  0  0  0  0  0  0  0  0  0  0
    9.2186    5.2389    0.0000 O   0  0  0  0  0  0  0  0  0  0  0  0
    8.4747    3.9363    0.0000 C   0  0  0  0  0  0  0  0  0  0  0  0
    7.1721    4.6802    0.0000 C   0  0  0  0  0  0  0  0  0  0  0  0
    9.7772    3.1924    0.0000 C   0  0  0  0  0  0  0  0  0  0  0  0
    4.9747    3.9198    0.0000 O   0  0  0  0  0  0  0  0  0  0  0  0
    5.7186    5.2224    0.0000 C   0  0  0  0  0  0  0  0  0  0  0  0
    7.2186    5.2295    0.0000 O   0  0  0  0  0  0  0  0  0  0  0  0
    4.9625    6.5179    0.0000 C   0  0  0  0  0  0  0  0  0  0  0  0
    5.7064    7.8204    0.0000 C   0  0  0  0  0  0  0  0  0  0  0  0
    4.9503    9.1159    0.0000 C   0  0  0  0  0  0  0  0  0  0  0  0
    7.2064    7.8275    0.0000 C   0  0  0  0  0  0  0  0  0  0  0  0
   -1.0130    1.2936    0.0000 C   0  0  0  0  0  0  0  0  0  0  0  0
   -1.0200    2.7936    0.0000 C   0  0  0  0  0  0  0  0  0  0  0  0
   -1.0059   -0.2064    0.0000 C   0  0  0  0  0  0  0  0  0  0  0  0
   -2.5130    1.2865    0.0000 C   0  0  0  0  0  0  0  0  0  0  0  0
   -3.2569   -0.0160    0.0000 C   0  0  0  0  0  0  0  0  0  0  0  0
    0.6480   -1.0369    0.0000 H   0  0  0  0  0  0  0  0  0  0  0  0
  1  2  2  0  0  0  0
  1  6  1  0  0  0  0
  2  3  1  0  0  0  0
  3  4  2  0  0  0  0
  4  5  1  0  0  0  0
  5  6  2  0  0  0  0
  5 11  1  0  0  0  0
  6  7  1  0  0  0  0
  7  8  2  0  0  0  0
  8  9  1  0  0  0  0
  9 10  2  0  0  0  0
  9 11  1  0  0  0  0
  1 12  1  0  0  0  0
 13 14  1  0  0  0  0
 14 15  1  0  0  0  0
 14 16  1  6  0  0  0
 16 17  1  0  0  0  0
 16 18  1  0  0  0  0
 16 19  1  0  0  0  0
  2 15  1  0  0  0  0
  3 13  1  0  0  0  0
 20 21  1  0  0  0  0
 21 22  1  0  0  0  0
 21 23  1  0  0  0  0
 23 24  1  0  0  0  0
 24 25  2  0  0  0  0
 24 26  1  0  0  0  0
 26 27  1  0  0  0  0
 27 28  1  0  0  0  0
 27 30  1  0  0  0  0
 28 33  1  0  0  0  0
 29 30  1  0  0  0  0
 30 31  1  0  0  0  0
 30 32  1  0  0  0  0
 33 34  1  0  0  0  0
 34 35  2  0  0  0  0
 34 36  1  0  0  0  0
 36 37  2  0  0  0  0
 37 38  1  0  0  0  0
 37 39  1  0  0  0  0
  4 28  1  0  0  0  0
 40 41  1  0  0  0  0
 40 42  1  0  0  0  0
 40 43  1  0  0  0  0
 43 44  2  0  0  0  0
  8 40  1  0  0  0  0
  7 45  1  0  0  0  0
M  END
> <score_Kier1>
0.51775

$$$$
suggested molecule #650
 MOE2019            2D

 45 47  0  0  1  0  0  0  0  0999 V2000
    3.4992   -1.2833    0.0000 C   0  0  0  0  0  0  0  0  0  1  0  0
    4.9992   -1.2762    0.0000 C   0  0  0  0  0  0  0  0  0  2  0  0
    5.7430    0.0263    0.0000 C   0  0  0  0  0  0  0  0  0  3  0  0
    4.9869    1.3218    0.0000 C   0  0  0  0  0  0  0  0  0  4  0  0
    3.4870    1.3147    0.0000 C   0  0  0  0  0  0  0  0  0  5  0  0
    2.7431    0.0122    0.0000 C   0  0  0  0  0  0  0  0  0  6  0  0
    1.2431    0.0051    0.0000 C   0  0  0  0  0  0  0  0  0  7  0  0
    0.4870    1.3006    0.0000 C   0  0  0  0  0  0  0  0  0  8  0  0
    1.2309    2.6032    0.0000 C   0  0  0  0  0  0  0  0  0  9  0  0
    0.4748    3.8987    0.0000 O   0  0  0  0  0  0  0  0  0 10  0  0
    2.7309    2.6102    0.0000 O   0  0  0  0  0  0  0  0  0 11  0  0
    2.9041   -2.3253    0.0000 H   0  0  0  0  0  0  0  0  0  0  0  0
    7.2117   -0.2787    0.0000 O   0  0  0  0  0  0  0  0  0  0  0  0
    7.3755   -1.7697    0.0000 C   0  0  1  0  0  0  0  0  0  0  0  0
    6.0081   -2.3862    0.0000 C   0  0  0  0  0  0  0  0  0  0  0  0
    8.6781   -2.5136    0.0000 C   0  0  0  0  0  0  0  0  0  0  0  0
    7.9342   -3.8161    0.0000 C   0  0  0  0  0  0  0  0  0  0  0  0
    9.9806   -3.2575    0.0000 C   0  0  0  0  0  0  0  0  0  0  0  0
    9.4220   -1.2110    0.0000 O   0  0  0  0  0  0  0  0  0  0  0  0
   12.9746    3.9575    0.0000 C   0  0  0  0  0  0  0  0  0  0  0  0
   12.2307    2.6549    0.0000 C   0  0  0  0  0  0  0  0  0  0  0  0
   12.9869    1.3594    0.0000 C   0  0  0  0  0  0  0  0  0  0  0  0
   10.7308    2.6479    0.0000 C   0  0  0  0  0  0  0  0  0  0  0  0
    9.9869    1.3453    0.0000 C   0  0  0  0  0  0  0  0  0  0  0  0
   10.7430    0.0498    0.0000 O   0  0  0  0  0  0  0  0  0  0  0  0
    8.4869    1.3383    0.0000 O   0  0  0  0  0  0  0  0  0  0  0  0
    7.7308    2.6338    0.0000 C   0  0  0  0  0  0  0  0  0  0  0  0
    5.7308    2.6244    0.0000 C   0  0  0  0  0  0  0  0  0  0  0  0
    9.2186    5.2389    0.0000 O   0  0  0  0  0  0  0  0  0  0  0  0
    8.4747    3.9363    0.0000 C   0  0  0  0  0  0  0  0  0  0  0  0
    7.1721    4.6802    0.0000 C   0  0  0  0  0  0  0  0  0  0  0  0
    9.7772    3.1924    0.0000 C   0  0  0  0  0  0  0  0  0  0  0  0
    4.9747    3.9198    0.0000 O   0  0  0  0  0  0  0  0  0  0  0  0
    5.7186    5.2224    0.0000 C   0  0  0  0  0  0  0  0  0  0  0  0
    7.2186    5.2295    0.0000 O   0  0  0  0  0  0  0  0  0  0  0  0
    4.9625    6.5179    0.0000 C   0  0  0  0  0  0  0  0  0  0  0  0
    5.7064    7.8204    0.0000 C   0  0  0  0  0  0  0  0  0  0  0  0
    4.9503    9.1159    0.0000 C   0  0  0  0  0  0  0  0  0  0  0  0
    7.2064    7.8275    0.0000 C   0  0  0  0  0  0  0  0  0  0  0  0
   -1.0130    1.2936    0.0000 C   0  0  0  0  0  0  0  0  0  0  0  0
   -1.0200    2.7936    0.0000 C   0  0  0  0  0  0  0  0  0  0  0  0
   -1.0059   -0.2064    0.0000 C   0  0  0  0  0  0  0  0  0  0  0  0
   -2.5130    1.2865    0.0000 C   0  0  0  0  0  0  0  0  0  0  0  0
   -3.2569   -0.0160    0.0000 C   0  0  0  0  0  0  0  0  0  0  0  0
    0.6480   -1.0369    0.0000 H   0  0  0  0  0  0  0  0  0  0  0  0
  1  2  2  0  0  0  0
  1  6  1  0  0  0  0
  2  3  1  0  0  0  0
  3  4  2  0  0  0  0
  4  5  1  0  0  0  0
  5  6  2  0  0  0  0
  5 11  1  0  0  0  0
  6  7  1  0  0  0  0
  7  8  2  0  0  0  0
  8  9  1  0  0  0  0
  9 10  2  0  0  0  0
  9 11  1  0  0  0  0
  1 12  1  0  0  0  0
 13 14  1  0  0  0  0
 14 15  1  0  0  0  0
 14 16  1  6  0  0  0
 16 17  1  0  0  0  0
 16 18  1  0  0  0  0
 16 19  1  0  0  0  0
  2 15  1  0  0  0  0
  3 13  1  0  0  0  0
 20 21  1  0  0  0  0
 21 22  1  0  0  0  0
 21 23  1  0  0  0  0
 23 24  1  0  0  0  0
 24 25  2  0  0  0  0
 24 26  1  0  0  0  0
 26 27  1  0  0  0  0
 27 28  1  0  0  0  0
 27 30  1  0  0  0  0
 28 33  1  0  0  0  0
 29 30  1  0  0  0  0
 30 31  1  0  0  0  0
 30 32  1  0  0  0  0
 33 34  1  0  0  0  0
 34 35  2  0  0  0  0
 34 36  1  0  0  0  0
 36 37  2  0  0  0  0
 37 38  1  0  0  0  0
 37 39  1  0  0  0  0
  4 28  1  0  0  0  0
 40 41  1  0  0  0  0
 40 42  1  0  0  0  0
 40 43  1  0  0  0  0
 43 44  2  0  0  0  0
  8 40  1  0  0  0  0
  7 45  1  0  0  0  0
M  END
> <score_Kier2>
0.516561

$$$$
suggested molecule #651
 MOE2019            2D

 45 47  0  0  1  0  0  0  0  0999 V2000
    3.4992   -1.2833    0.0000 C   0  0  0  0  0  0  0  0  0  1  0  0
    4.9992   -1.2762    0.0000 C   0  0  0  0  0  0  0  0  0  2  0  0
    5.7430    0.0263    0.0000 C   0  0  0  0  0  0  0  0  0  3  0  0
    4.9869    1.3218    0.0000 C   0  0  0  0  0  0  0  0  0  4  0  0
    3.4870    1.3147    0.0000 C   0  0  0  0  0  0  0  0  0  5  0  0
    2.7431    0.0122    0.0000 C   0  0  0  0  0  0  0  0  0  6  0  0
    1.2431    0.0051    0.0000 C   0  0  0  0  0  0  0  0  0  7  0  0
    0.4870    1.3006    0.0000 C   0  0  0  0  0  0  0  0  0  8  0  0
    1.2309    2.6032    0.0000 C   0  0  0  0  0  0  0  0  0  9  0  0
    0.4748    3.8987    0.0000 O   0  0  0  0  0  0  0  0  0 10  0  0
    2.7309    2.6102    0.0000 O   0  0  0  0  0  0  0  0  0 11  0  0
    2.9041   -2.3253    0.0000 H   0  0  0  0  0  0  0  0  0  0  0  0
    7.2117   -0.2787    0.0000 O   0  0  0  0  0  0  0  0  0  0  0  0
    7.3755   -1.7697    0.0000 C   0  0  1  0  0  0  0  0  0  0  0  0
    6.0081   -2.3862    0.0000 C   0  0  0  0  0  0  0  0  0  0  0  0
    8.6781   -2.5136    0.0000 C   0  0  0  0  0  0  0  0  0  0  0  0
    7.9342   -3.8161    0.0000 C   0  0  0  0  0  0  0  0  0  0  0  0
    9.9806   -3.2575    0.0000 C   0  0  0  0  0  0  0  0  0  0  0  0
    9.4220   -1.2110    0.0000 O   0  0  0  0  0  0  0  0  0  0  0  0
   12.9746    3.9575    0.0000 C   0  0  0  0  0  0  0  0  0  0  0  0
   12.2307    2.6549    0.0000 C   0  0  0  0  0  0  0  0  0  0  0  0
   12.9869    1.3594    0.0000 C   0  0  0  0  0  0  0  0  0  0  0  0
   10.7308    2.6479    0.0000 C   0  0  0  0  0  0  0  0  0  0  0  0
    9.9869    1.3453    0.0000 C   0  0  0  0  0  0  0  0  0  0  0  0
   10.7430    0.0498    0.0000 O   0  0  0  0  0  0  0  0  0  0  0  0
    8.4869    1.3383    0.0000 O   0  0  0  0  0  0  0  0  0  0  0  0
    7.7308    2.6338    0.0000 C   0  0  0  0  0  0  0  0  0  0  0  0
    5.7308    2.6244    0.0000 C   0  0  0  0  0  0  0  0  0  0  0  0
    9.2186    5.2389    0.0000 O   0  0  0  0  0  0  0  0  0  0  0  0
    8.4747    3.9363    0.0000 C   0  0  0  0  0  0  0  0  0  0  0  0
    7.1721    4.6802    0.0000 C   0  0  0  0  0  0  0  0  0  0  0  0
    9.7772    3.1924    0.0000 C   0  0  0  0  0  0  0  0  0  0  0  0
    4.9747    3.9198    0.0000 O   0  0  0  0  0  0  0  0  0  0  0  0
    5.7186    5.2224    0.0000 C   0  0  0  0  0  0  0  0  0  0  0  0
    7.2186    5.2295    0.0000 O   0  0  0  0  0  0  0  0  0  0  0  0
    4.9625    6.5179    0.0000 C   0  0  0  0  0  0  0  0  0  0  0  0
    5.7064    7.8204    0.0000 C   0  0  0  0  0  0  0  0  0  0  0  0
    4.9503    9.1159    0.0000 C   0  0  0  0  0  0  0  0  0  0  0  0
    7.2064    7.8275    0.0000 C   0  0  0  0  0  0  0  0  0  0  0  0
   -1.0130    1.2936    0.0000 C   0  0  0  0  0  0  0  0  0  0  0  0
   -1.0200    2.7936    0.0000 C   0  0  0  0  0  0  0  0  0  0  0  0
   -1.0059   -0.2064    0.0000 C   0  0  0  0  0  0  0  0  0  0  0  0
   -2.5130    1.2865    0.0000 C   0  0  0  0  0  0  0  0  0  0  0  0
   -3.2569   -0.0160    0.0000 C   0  0  0  0  0  0  0  0  0  0  0  0
    0.6480   -1.0369    0.0000 H   0  0  0  0  0  0  0  0  0  0  0  0
  1  2  2  0  0  0  0
  1  6  1  0  0  0  0
  2  3  1  0  0  0  0
  3  4  2  0  0  0  0
  4  5  1  0  0  0  0
  5  6  2  0  0  0  0
  5 11  1  0  0  0  0
  6  7  1  0  0  0  0
  7  8  2  0  0  0  0
  8  9  1  0  0  0  0
  9 10  2  0  0  0  0
  9 11  1  0  0  0  0
  1 12  1  0  0  0  0
 13 14  1  0  0  0  0
 14 15  1  0  0  0  0
 14 16  1  6  0  0  0
 16 17  1  0  0  0  0
 16 18  1  0  0  0  0
 16 19  1  0  0  0  0
  2 15  1  0  0  0  0
  3 13  1  0  0  0  0
 20 21  1  0  0  0  0
 21 22  1  0  0  0  0
 21 23  1  0  0  0  0
 23 24  1  0  0  0  0
 24 25  2  0  0  0  0
 24 26  1  0  0  0  0
 26 27  1  0  0  0  0
 27 28  1  0  0  0  0
 27 30  1  0  0  0  0
 28 33  1  0  0  0  0
 29 30  1  0  0  0  0
 30 31  1  0  0  0  0
 30 32  1  0  0  0  0
 33 34  1  0  0  0  0
 34 35  2  0  0  0  0
 34 36  1  0  0  0  0
 36 37  2  0  0  0  0
 37 38  1  0  0  0  0
 37 39  1  0  0  0  0
  4 28  1  0  0  0  0
 40 41  1  0  0  0  0
 40 42  1  0  0  0  0
 40 43  1  0  0  0  0
 43 44  2  0  0  0  0
  8 40  1  0  0  0  0
  7 45  1  0  0  0  0
M  END
> <score_KierA2>
0.516751

$$$$
suggested molecule #652
 MOE2019            2D

 45 47  0  0  1  0  0  0  0  0999 V2000
    3.4992   -1.2833    0.0000 C   0  0  0  0  0  0  0  0  0  1  0  0
    4.9992   -1.2762    0.0000 C   0  0  0  0  0  0  0  0  0  2  0  0
    5.7430    0.0263    0.0000 C   0  0  0  0  0  0  0  0  0  3  0  0
    4.9869    1.3218    0.0000 C   0  0  0  0  0  0  0  0  0  4  0  0
    3.4870    1.3147    0.0000 C   0  0  0  0  0  0  0  0  0  5  0  0
    2.7431    0.0122    0.0000 C   0  0  0  0  0  0  0  0  0  6  0  0
    1.2431    0.0051    0.0000 C   0  0  0  0  0  0  0  0  0  7  0  0
    0.4870    1.3006    0.0000 C   0  0  0  0  0  0  0  0  0  8  0  0
    1.2309    2.6032    0.0000 C   0  0  0  0  0  0  0  0  0  9  0  0
    0.4748    3.8987    0.0000 O   0  0  0  0  0  0  0  0  0 10  0  0
    2.7309    2.6102    0.0000 O   0  0  0  0  0  0  0  0  0 11  0  0
    2.9041   -2.3253    0.0000 H   0  0  0  0  0  0  0  0  0  0  0  0
    7.2117   -0.2787    0.0000 O   0  0  0  0  0  0  0  0  0  0  0  0
    7.3755   -1.7697    0.0000 C   0  0  1  0  0  0  0  0  0  0  0  0
    6.0081   -2.3862    0.0000 C   0  0  0  0  0  0  0  0  0  0  0  0
    8.6781   -2.5136    0.0000 C   0  0  0  0  0  0  0  0  0  0  0  0
    9.4220   -1.2110    0.0000 C   0  0  0  0  0  0  0  0  0  0  0  0
    9.9806   -3.2575    0.0000 C   0  0  0  0  0  0  0  0  0  0  0  0
    7.9342   -3.8161    0.0000 O   0  0  0  0  0  0  0  0  0  0  0  0
    4.9503    9.1159    0.0000 C   0  0  0  0  0  0  0  0  0  0  0  0
    5.7064    7.8204    0.0000 C   0  0  0  0  0  0  0  0  0  0  0  0
    7.2064    7.8275    0.0000 C   0  0  0  0  0  0  0  0  0  0  0  0
    4.9625    6.5179    0.0000 C   0  0  0  0  0  0  0  0  0  0  0  0
    5.7186    5.2224    0.0000 C   0  0  0  0  0  0  0  0  0  0  0  0
    7.2186    5.2295    0.0000 O   0  0  0  0  0  0  0  0  0  0  0  0
    4.9747    3.9198    0.0000 O   0  0  0  0  0  0  0  0  0  0  0  0
    5.7308    2.6244    0.0000 C   0  0  0  0  0  0  0  0  0  0  0  0
    7.7308    2.6338    0.0000 C   0  0  0  0  0  0  0  0  0  0  0  0
    8.4869    1.3383    0.0000 O   0  0  0  0  0  0  0  0  0  0  0  0
    8.4747    3.9363    0.0000 C   0  0  0  0  0  0  0  0  0  0  0  0
    7.1721    4.6802    0.0000 C   0  0  0  0  0  0  0  0  0  0  0  0
    9.2186    5.2389    0.0000 C   0  0  0  0  0  0  0  0  0  0  0  0
    9.7772    3.1924    0.0000 O   0  0  0  0  0  0  0  0  0  0  0  0
   11.0727    3.9485    0.0000 C   0  0  0  0  0  0  0  0  0  0  0  0
   11.0657    5.4485    0.0000 O   0  0  0  0  0  0  0  0  0  0  0  0
   12.3753    3.2046    0.0000 C   0  0  0  0  0  0  0  0  0  0  0  0
   13.6708    3.9607    0.0000 C   0  0  0  0  0  0  0  0  0  0  0  0
   13.6637    5.4607    0.0000 C   0  0  0  0  0  0  0  0  0  0  0  0
   14.9733    3.2169    0.0000 C   0  0  0  0  0  0  0  0  0  0  0  0
   -1.0130    1.2936    0.0000 C   0  0  0  0  0  0  0  0  0  0  0  0
   -1.0200    2.7936    0.0000 C   0  0  0  0  0  0  0  0  0  0  0  0
   -1.0059   -0.2064    0.0000 C   0  0  0  0  0  0  0  0  0  0  0  0
   -2.5130    1.2865    0.0000 C   0  0  0  0  0  0  0  0  0  0  0  0
   -3.2569   -0.0160    0.0000 C   0  0  0  0  0  0  0  0  0  0  0  0
    0.6480   -1.0369    0.0000 H   0  0  0  0  0  0  0  0  0  0  0  0
  1  2  2  0  0  0  0
  1  6  1  0  0  0  0
  2  3  1  0  0  0  0
  3  4  2  0  0  0  0
  4  5  1  0  0  0  0
  5  6  2  0  0  0  0
  5 11  1  0  0  0  0
  6  7  1  0  0  0  0
  7  8  2  0  0  0  0
  8  9  1  0  0  0  0
  9 10  2  0  0  0  0
  9 11  1  0  0  0  0
  1 12  1  0  0  0  0
 13 14  1  0  0  0  0
 14 15  1  0  0  0  0
 14 16  1  6  0  0  0
 16 17  1  0  0  0  0
 16 18  1  0  0  0  0
 16 19  1  0  0  0  0
  2 15  1  0  0  0  0
  3 13  1  0  0  0  0
 20 21  1  0  0  0  0
 21 22  1  0  0  0  0
 21 23  1  0  0  0  0
 23 24  1  0  0  0  0
 24 25  2  0  0  0  0
 24 26  1  0  0  0  0
 26 27  1  0  0  0  0
 27 28  1  0  0  0  0
 28 29  1  0  0  0  0
 28 30  1  0  0  0  0
 30 31  1  0  0  0  0
 30 32  1  0  0  0  0
 30 33  1  0  0  0  0
 33 34  1  0  0  0  0
 34 35  2  0  0  0  0
 34 36  1  0  0  0  0
 36 37  1  0  0  0  0
 37 38  1  0  0  0  0
 37 39  1  0  0  0  0
  4 27  1  0  0  0  0
 40 41  1  0  0  0  0
 40 42  1  0  0  0  0
 40 43  1  0  0  0  0
 43 44  2  0  0  0  0
  8 40  1  0  0  0  0
  7 45  1  0  0  0  0
M  END
> <score_Kier1>
0.51775

$$$$
suggested molecule #653
 MOE2019            2D

 45 47  0  0  1  0  0  0  0  0999 V2000
    3.4992   -1.2833    0.0000 C   0  0  0  0  0  0  0  0  0  1  0  0
    4.9992   -1.2762    0.0000 C   0  0  0  0  0  0  0  0  0  2  0  0
    5.7430    0.0263    0.0000 C   0  0  0  0  0  0  0  0  0  3  0  0
    4.9869    1.3218    0.0000 C   0  0  0  0  0  0  0  0  0  4  0  0
    3.4870    1.3147    0.0000 C   0  0  0  0  0  0  0  0  0  5  0  0
    2.7431    0.0122    0.0000 C   0  0  0  0  0  0  0  0  0  6  0  0
    1.2431    0.0051    0.0000 C   0  0  0  0  0  0  0  0  0  7  0  0
    0.4870    1.3006    0.0000 C   0  0  0  0  0  0  0  0  0  8  0  0
    1.2309    2.6032    0.0000 C   0  0  0  0  0  0  0  0  0  9  0  0
    0.4748    3.8987    0.0000 O   0  0  0  0  0  0  0  0  0 10  0  0
    2.7309    2.6102    0.0000 O   0  0  0  0  0  0  0  0  0 11  0  0
    2.9041   -2.3253    0.0000 H   0  0  0  0  0  0  0  0  0  0  0  0
    7.2117   -0.2787    0.0000 O   0  0  0  0  0  0  0  0  0  0  0  0
    7.3755   -1.7697    0.0000 C   0  0  1  0  0  0  0  0  0  0  0  0
    6.0081   -2.3862    0.0000 C   0  0  0  0  0  0  0  0  0  0  0  0
    8.6781   -2.5136    0.0000 C   0  0  0  0  0  0  0  0  0  0  0  0
    9.4220   -1.2110    0.0000 C   0  0  0  0  0  0  0  0  0  0  0  0
    9.9806   -3.2575    0.0000 C   0  0  0  0  0  0  0  0  0  0  0  0
    7.9342   -3.8161    0.0000 O   0  0  0  0  0  0  0  0  0  0  0  0
    4.9503    9.1159    0.0000 C   0  0  0  0  0  0  0  0  0  0  0  0
    5.7064    7.8204    0.0000 C   0  0  0  0  0  0  0  0  0  0  0  0
    7.2064    7.8275    0.0000 C   0  0  0  0  0  0  0  0  0  0  0  0
    4.9625    6.5179    0.0000 C   0  0  0  0  0  0  0  0  0  0  0  0
    5.7186    5.2224    0.0000 C   0  0  0  0  0  0  0  0  0  0  0  0
    7.2186    5.2295    0.0000 O   0  0  0  0  0  0  0  0  0  0  0  0
    4.9747    3.9198    0.0000 O   0  0  0  0  0  0  0  0  0  0  0  0
    5.7308    2.6244    0.0000 C   0  0  0  0  0  0  0  0  0  0  0  0
    7.7308    2.6338    0.0000 C   0  0  0  0  0  0  0  0  0  0  0  0
    8.4869    1.3383    0.0000 O   0  0  0  0  0  0  0  0  0  0  0  0
    8.4747    3.9363    0.0000 C   0  0  0  0  0  0  0  0  0  0  0  0
    7.1721    4.6802    0.0000 C   0  0  0  0  0  0  0  0  0  0  0  0
    9.2186    5.2389    0.0000 C   0  0  0  0  0  0  0  0  0  0  0  0
    9.7772    3.1924    0.0000 O   0  0  0  0  0  0  0  0  0  0  0  0
   11.0727    3.9485    0.0000 C   0  0  0  0  0  0  0  0  0  0  0  0
   11.0657    5.4485    0.0000 O   0  0  0  0  0  0  0  0  0  0  0  0
   12.3753    3.2046    0.0000 C   0  0  0  0  0  0  0  0  0  0  0  0
   13.6708    3.9607    0.0000 C   0  0  0  0  0  0  0  0  0  0  0  0
   13.6637    5.4607    0.0000 C   0  0  0  0  0  0  0  0  0  0  0  0
   14.9733    3.2169    0.0000 C   0  0  0  0  0  0  0  0  0  0  0  0
   -1.0130    1.2936    0.0000 C   0  0  0  0  0  0  0  0  0  0  0  0
   -1.0200    2.7936    0.0000 C   0  0  0  0  0  0  0  0  0  0  0  0
   -1.0059   -0.2064    0.0000 C   0  0  0  0  0  0  0  0  0  0  0  0
   -2.5130    1.2865    0.0000 C   0  0  0  0  0  0  0  0  0  0  0  0
   -3.2569   -0.0160    0.0000 C   0  0  0  0  0  0  0  0  0  0  0  0
    0.6480   -1.0369    0.0000 H   0  0  0  0  0  0  0  0  0  0  0  0
  1  2  2  0  0  0  0
  1  6  1  0  0  0  0
  2  3  1  0  0  0  0
  3  4  2  0  0  0  0
  4  5  1  0  0  0  0
  5  6  2  0  0  0  0
  5 11  1  0  0  0  0
  6  7  1  0  0  0  0
  7  8  2  0  0  0  0
  8  9  1  0  0  0  0
  9 10  2  0  0  0  0
  9 11  1  0  0  0  0
  1 12  1  0  0  0  0
 13 14  1  0  0  0  0
 14 15  1  0  0  0  0
 14 16  1  6  0  0  0
 16 17  1  0  0  0  0
 16 18  1  0  0  0  0
 16 19  1  0  0  0  0
  2 15  1  0  0  0  0
  3 13  1  0  0  0  0
 20 21  1  0  0  0  0
 21 22  1  0  0  0  0
 21 23  1  0  0  0  0
 23 24  1  0  0  0  0
 24 25  2  0  0  0  0
 24 26  1  0  0  0  0
 26 27  1  0  0  0  0
 27 28  1  0  0  0  0
 28 29  1  0  0  0  0
 28 30  1  0  0  0  0
 30 31  1  0  0  0  0
 30 32  1  0  0  0  0
 30 33  1  0  0  0  0
 33 34  1  0  0  0  0
 34 35  2  0  0  0  0
 34 36  1  0  0  0  0
 36 37  1  0  0  0  0
 37 38  1  0  0  0  0
 37 39  1  0  0  0  0
  4 27  1  0  0  0  0
 40 41  1  0  0  0  0
 40 42  1  0  0  0  0
 40 43  1  0  0  0  0
 43 44  2  0  0  0  0
  8 40  1  0  0  0  0
  7 45  1  0  0  0  0
M  END
> <score_Kier2>
0.516561

$$$$
suggested molecule #654
 MOE2019            2D

 45 47  0  0  1  0  0  0  0  0999 V2000
    3.4992   -1.2833    0.0000 C   0  0  0  0  0  0  0  0  0  1  0  0
    4.9992   -1.2762    0.0000 C   0  0  0  0  0  0  0  0  0  2  0  0
    5.7430    0.0263    0.0000 C   0  0  0  0  0  0  0  0  0  3  0  0
    4.9869    1.3218    0.0000 C   0  0  0  0  0  0  0  0  0  4  0  0
    3.4870    1.3147    0.0000 C   0  0  0  0  0  0  0  0  0  5  0  0
    2.7431    0.0122    0.0000 C   0  0  0  0  0  0  0  0  0  6  0  0
    1.2431    0.0051    0.0000 C   0  0  0  0  0  0  0  0  0  7  0  0
    0.4870    1.3006    0.0000 C   0  0  0  0  0  0  0  0  0  8  0  0
    1.2309    2.6032    0.0000 C   0  0  0  0  0  0  0  0  0  9  0  0
    0.4748    3.8987    0.0000 O   0  0  0  0  0  0  0  0  0 10  0  0
    2.7309    2.6102    0.0000 O   0  0  0  0  0  0  0  0  0 11  0  0
    2.9041   -2.3253    0.0000 H   0  0  0  0  0  0  0  0  0  0  0  0
    7.2117   -0.2787    0.0000 O   0  0  0  0  0  0  0  0  0  0  0  0
    7.3755   -1.7697    0.0000 C   0  0  1  0  0  0  0  0  0  0  0  0
    6.0081   -2.3862    0.0000 C   0  0  0  0  0  0  0  0  0  0  0  0
    8.6781   -2.5136    0.0000 C   0  0  0  0  0  0  0  0  0  0  0  0
    9.4220   -1.2110    0.0000 C   0  0  0  0  0  0  0  0  0  0  0  0
    9.9806   -3.2575    0.0000 C   0  0  0  0  0  0  0  0  0  0  0  0
    7.9342   -3.8161    0.0000 O   0  0  0  0  0  0  0  0  0  0  0  0
    4.9503    9.1159    0.0000 C   0  0  0  0  0  0  0  0  0  0  0  0
    5.7064    7.8204    0.0000 C   0  0  0  0  0  0  0  0  0  0  0  0
    7.2064    7.8275    0.0000 C   0  0  0  0  0  0  0  0  0  0  0  0
    4.9625    6.5179    0.0000 C   0  0  0  0  0  0  0  0  0  0  0  0
    5.7186    5.2224    0.0000 C   0  0  0  0  0  0  0  0  0  0  0  0
    7.2186    5.2295    0.0000 O   0  0  0  0  0  0  0  0  0  0  0  0
    4.9747    3.9198    0.0000 O   0  0  0  0  0  0  0  0  0  0  0  0
    5.7308    2.6244    0.0000 C   0  0  0  0  0  0  0  0  0  0  0  0
    7.7308    2.6338    0.0000 C   0  0  0  0  0  0  0  0  0  0  0  0
    8.4869    1.3383    0.0000 O   0  0  0  0  0  0  0  0  0  0  0  0
    8.4747    3.9363    0.0000 C   0  0  0  0  0  0  0  0  0  0  0  0
    7.1721    4.6802    0.0000 C   0  0  0  0  0  0  0  0  0  0  0  0
    9.2186    5.2389    0.0000 C   0  0  0  0  0  0  0  0  0  0  0  0
    9.7772    3.1924    0.0000 O   0  0  0  0  0  0  0  0  0  0  0  0
   11.0727    3.9485    0.0000 C   0  0  0  0  0  0  0  0  0  0  0  0
   11.0657    5.4485    0.0000 O   0  0  0  0  0  0  0  0  0  0  0  0
   12.3753    3.2046    0.0000 C   0  0  0  0  0  0  0  0  0  0  0  0
   13.6708    3.9607    0.0000 C   0  0  0  0  0  0  0  0  0  0  0  0
   13.6637    5.4607    0.0000 C   0  0  0  0  0  0  0  0  0  0  0  0
   14.9733    3.2169    0.0000 C   0  0  0  0  0  0  0  0  0  0  0  0
   -1.0130    1.2936    0.0000 C   0  0  0  0  0  0  0  0  0  0  0  0
   -1.0200    2.7936    0.0000 C   0  0  0  0  0  0  0  0  0  0  0  0
   -1.0059   -0.2064    0.0000 C   0  0  0  0  0  0  0  0  0  0  0  0
   -2.5130    1.2865    0.0000 C   0  0  0  0  0  0  0  0  0  0  0  0
   -3.2569   -0.0160    0.0000 C   0  0  0  0  0  0  0  0  0  0  0  0
    0.6480   -1.0369    0.0000 H   0  0  0  0  0  0  0  0  0  0  0  0
  1  2  2  0  0  0  0
  1  6  1  0  0  0  0
  2  3  1  0  0  0  0
  3  4  2  0  0  0  0
  4  5  1  0  0  0  0
  5  6  2  0  0  0  0
  5 11  1  0  0  0  0
  6  7  1  0  0  0  0
  7  8  2  0  0  0  0
  8  9  1  0  0  0  0
  9 10  2  0  0  0  0
  9 11  1  0  0  0  0
  1 12  1  0  0  0  0
 13 14  1  0  0  0  0
 14 15  1  0  0  0  0
 14 16  1  6  0  0  0
 16 17  1  0  0  0  0
 16 18  1  0  0  0  0
 16 19  1  0  0  0  0
  2 15  1  0  0  0  0
  3 13  1  0  0  0  0
 20 21  1  0  0  0  0
 21 22  1  0  0  0  0
 21 23  1  0  0  0  0
 23 24  1  0  0  0  0
 24 25  2  0  0  0  0
 24 26  1  0  0  0  0
 26 27  1  0  0  0  0
 27 28  1  0  0  0  0
 28 29  1  0  0  0  0
 28 30  1  0  0  0  0
 30 31  1  0  0  0  0
 30 32  1  0  0  0  0
 30 33  1  0  0  0  0
 33 34  1  0  0  0  0
 34 35  2  0  0  0  0
 34 36  1  0  0  0  0
 36 37  1  0  0  0  0
 37 38  1  0  0  0  0
 37 39  1  0  0  0  0
  4 27  1  0  0  0  0
 40 41  1  0  0  0  0
 40 42  1  0  0  0  0
 40 43  1  0  0  0  0
 43 44  2  0  0  0  0
  8 40  1  0  0  0  0
  7 45  1  0  0  0  0
M  END
> <score_KierA2>
0.516748

$$$$
suggested molecule #655
 MOE2019            2D

 31 33  0  0  1  0  0  0  0  0999 V2000
    3.4992   -1.2833    0.0000 C   0  0  0  0  0  0  0  0  0  1  0  0
    4.9992   -1.2762    0.0000 C   0  0  0  0  0  0  0  0  0  2  0  0
    5.7430    0.0263    0.0000 C   0  0  0  0  0  0  0  0  0  3  0  0
    4.9869    1.3218    0.0000 C   0  0  0  0  0  0  0  0  0  4  0  0
    3.4870    1.3147    0.0000 C   0  0  0  0  0  0  0  0  0  5  0  0
    2.7431    0.0122    0.0000 C   0  0  0  0  0  0  0  0  0  6  0  0
    1.2431    0.0051    0.0000 C   0  0  0  0  0  0  0  0  0  7  0  0
    0.4870    1.3006    0.0000 C   0  0  0  0  0  0  0  0  0  8  0  0
    1.2309    2.6032    0.0000 C   0  0  0  0  0  0  0  0  0  9  0  0
    0.4748    3.8987    0.0000 O   0  0  0  0  0  0  0  0  0 10  0  0
    2.7309    2.6102    0.0000 O   0  0  0  0  0  0  0  0  0 11  0  0
    2.9041   -2.3253    0.0000 H   0  0  0  0  0  0  0  0  0  0  0  0
    7.2117   -0.2787    0.0000 O   0  0  0  0  0  0  0  0  0  0  0  0
    7.3755   -1.7697    0.0000 C   0  0  1  0  0  0  0  0  0  0  0  0
    6.0081   -2.3862    0.0000 C   0  0  0  0  0  0  0  0  0  0  0  0
    8.6781   -2.5136    0.0000 C   0  0  0  0  0  0  0  0  0  0  0  0
    9.4220   -1.2110    0.0000 C   0  0  0  0  0  0  0  0  0  0  0  0
    7.9342   -3.8161    0.0000 C   0  0  0  0  0  0  0  0  0  0  0  0
    9.9806   -3.2575    0.0000 O   0  0  0  0  0  0  0  0  0  0  0  0
    5.7308    2.6244    0.0000 C   0  0  0  0  0  0  0  0  0  0  0  0
    7.2308    2.6314    0.0000 C   0  0  0  0  0  0  0  0  0  0  0  0
    7.9747    3.9340    0.0000 C   0  0  0  0  0  0  0  0  0  0  0  0
    9.2772    3.1901    0.0000 O   0  0  0  0  0  0  0  0  0  0  0  0
    8.7186    5.2365    0.0000 C   0  0  0  0  0  0  0  0  0  0  0  0
    6.6721    4.6778    0.0000 C   0  0  0  0  0  0  0  0  0  0  0  0
   -1.0130    1.2936    0.0000 C   0  0  0  0  0  0  0  0  0  0  0  0
   -1.0059   -0.2064    0.0000 C   0  0  0  0  0  0  0  0  0  0  0  0
   -1.0200    2.7936    0.0000 C   0  0  0  0  0  0  0  0  0  0  0  0
   -2.5130    1.2865    0.0000 C   0  0  0  0  0  0  0  0  0  0  0  0
   -3.2569   -0.0160    0.0000 C   0  0  0  0  0  0  0  0  0  0  0  0
    0.6480   -1.0369    0.0000 H   0  0  0  0  0  0  0  0  0  0  0  0
  1  2  2  0  0  0  0
  1  6  1  0  0  0  0
  2  3  1  0  0  0  0
  3  4  2  0  0  0  0
  4  5  1  0  0  0  0
  5  6  2  0  0  0  0
  5 11  1  0  0  0  0
  6  7  1  0  0  0  0
  7  8  2  0  0  0  0
  8  9  1  0  0  0  0
  9 10  2  0  0  0  0
  9 11  1  0  0  0  0
  1 12  1  0  0  0  0
 13 14  1  0  0  0  0
 14 15  1  0  0  0  0
 14 16  1  6  0  0  0
 16 17  1  0  0  0  0
 16 18  1  0  0  0  0
 16 19  1  0  0  0  0
  2 15  1  0  0  0  0
  3 13  1  0  0  0  0
 20 21  2  0  0  0  0
 21 22  1  0  0  0  0
 22 23  1  0  0  0  0
 22 24  1  0  0  0  0
 22 25  1  0  0  0  0
  4 20  1  0  0  0  0
 26 27  1  0  0  0  0
 26 28  1  0  0  0  0
 26 29  1  0  0  0  0
 29 30  2  0  0  0  0
  8 26  1  0  0  0  0
  7 31  1  0  0  0  0
M  END
> <score_Kier1>
0.517763

$$$$
suggested molecule #656
 MOE2019            2D

 31 33  0  0  1  0  0  0  0  0999 V2000
    3.4992   -1.2833    0.0000 C   0  0  0  0  0  0  0  0  0  1  0  0
    4.9992   -1.2762    0.0000 C   0  0  0  0  0  0  0  0  0  2  0  0
    5.7430    0.0263    0.0000 C   0  0  0  0  0  0  0  0  0  3  0  0
    4.9869    1.3218    0.0000 C   0  0  0  0  0  0  0  0  0  4  0  0
    3.4870    1.3147    0.0000 C   0  0  0  0  0  0  0  0  0  5  0  0
    2.7431    0.0122    0.0000 C   0  0  0  0  0  0  0  0  0  6  0  0
    1.2431    0.0051    0.0000 C   0  0  0  0  0  0  0  0  0  7  0  0
    0.4870    1.3006    0.0000 C   0  0  0  0  0  0  0  0  0  8  0  0
    1.2309    2.6032    0.0000 C   0  0  0  0  0  0  0  0  0  9  0  0
    0.4748    3.8987    0.0000 O   0  0  0  0  0  0  0  0  0 10  0  0
    2.7309    2.6102    0.0000 O   0  0  0  0  0  0  0  0  0 11  0  0
    2.9041   -2.3253    0.0000 H   0  0  0  0  0  0  0  0  0  0  0  0
    7.2117   -0.2787    0.0000 O   0  0  0  0  0  0  0  0  0  0  0  0
    7.3755   -1.7697    0.0000 C   0  0  1  0  0  0  0  0  0  0  0  0
    6.0081   -2.3862    0.0000 C   0  0  0  0  0  0  0  0  0  0  0  0
    8.6781   -2.5136    0.0000 C   0  0  0  0  0  0  0  0  0  0  0  0
    9.4220   -1.2110    0.0000 C   0  0  0  0  0  0  0  0  0  0  0  0
    7.9342   -3.8161    0.0000 C   0  0  0  0  0  0  0  0  0  0  0  0
    9.9806   -3.2575    0.0000 O   0  0  0  0  0  0  0  0  0  0  0  0
    5.7308    2.6244    0.0000 C   0  0  0  0  0  0  0  0  0  0  0  0
    7.2308    2.6314    0.0000 C   0  0  0  0  0  0  0  0  0  0  0  0
    7.9747    3.9340    0.0000 C   0  0  0  0  0  0  0  0  0  0  0  0
    9.2772    3.1901    0.0000 O   0  0  0  0  0  0  0  0  0  0  0  0
    8.7186    5.2365    0.0000 C   0  0  0  0  0  0  0  0  0  0  0  0
    6.6721    4.6778    0.0000 C   0  0  0  0  0  0  0  0  0  0  0  0
   -1.0130    1.2936    0.0000 C   0  0  0  0  0  0  0  0  0  0  0  0
   -1.0059   -0.2064    0.0000 C   0  0  0  0  0  0  0  0  0  0  0  0
   -1.0200    2.7936    0.0000 C   0  0  0  0  0  0  0  0  0  0  0  0
   -2.5130    1.2865    0.0000 C   0  0  0  0  0  0  0  0  0  0  0  0
   -3.2569   -0.0160    0.0000 C   0  0  0  0  0  0  0  0  0  0  0  0
    0.6480   -1.0369    0.0000 H   0  0  0  0  0  0  0  0  0  0  0  0
  1  2  2  0  0  0  0
  1  6  1  0  0  0  0
  2  3  1  0  0  0  0
  3  4  2  0  0  0  0
  4  5  1  0  0  0  0
  5  6  2  0  0  0  0
  5 11  1  0  0  0  0
  6  7  1  0  0  0  0
  7  8  2  0  0  0  0
  8  9  1  0  0  0  0
  9 10  2  0  0  0  0
  9 11  1  0  0  0  0
  1 12  1  0  0  0  0
 13 14  1  0  0  0  0
 14 15  1  0  0  0  0
 14 16  1  6  0  0  0
 16 17  1  0  0  0  0
 16 18  1  0  0  0  0
 16 19  1  0  0  0  0
  2 15  1  0  0  0  0
  3 13  1  0  0  0  0
 20 21  2  0  0  0  0
 21 22  1  0  0  0  0
 22 23  1  0  0  0  0
 22 24  1  0  0  0  0
 22 25  1  0  0  0  0
  4 20  1  0  0  0  0
 26 27  1  0  0  0  0
 26 28  1  0  0  0  0
 26 29  1  0  0  0  0
 29 30  2  0  0  0  0
  8 26  1  0  0  0  0
  7 31  1  0  0  0  0
M  END
> <score_Kier2>
0.516577

$$$$
suggested molecule #657
 MOE2019            2D

 31 33  0  0  1  0  0  0  0  0999 V2000
    3.4992   -1.2833    0.0000 C   0  0  0  0  0  0  0  0  0  1  0  0
    4.9992   -1.2762    0.0000 C   0  0  0  0  0  0  0  0  0  2  0  0
    5.7430    0.0263    0.0000 C   0  0  0  0  0  0  0  0  0  3  0  0
    4.9869    1.3218    0.0000 C   0  0  0  0  0  0  0  0  0  4  0  0
    3.4870    1.3147    0.0000 C   0  0  0  0  0  0  0  0  0  5  0  0
    2.7431    0.0122    0.0000 C   0  0  0  0  0  0  0  0  0  6  0  0
    1.2431    0.0051    0.0000 C   0  0  0  0  0  0  0  0  0  7  0  0
    0.4870    1.3006    0.0000 C   0  0  0  0  0  0  0  0  0  8  0  0
    1.2309    2.6032    0.0000 C   0  0  0  0  0  0  0  0  0  9  0  0
    0.4748    3.8987    0.0000 O   0  0  0  0  0  0  0  0  0 10  0  0
    2.7309    2.6102    0.0000 O   0  0  0  0  0  0  0  0  0 11  0  0
    2.9041   -2.3253    0.0000 H   0  0  0  0  0  0  0  0  0  0  0  0
    7.2117   -0.2787    0.0000 O   0  0  0  0  0  0  0  0  0  0  0  0
    7.3755   -1.7697    0.0000 C   0  0  1  0  0  0  0  0  0  0  0  0
    6.0081   -2.3862    0.0000 C   0  0  0  0  0  0  0  0  0  0  0  0
    8.6781   -2.5136    0.0000 C   0  0  0  0  0  0  0  0  0  0  0  0
    9.4220   -1.2110    0.0000 C   0  0  0  0  0  0  0  0  0  0  0  0
    7.9342   -3.8161    0.0000 C   0  0  0  0  0  0  0  0  0  0  0  0
    9.9806   -3.2575    0.0000 O   0  0  0  0  0  0  0  0  0  0  0  0
    5.7308    2.6244    0.0000 C   0  0  0  0  0  0  0  0  0  0  0  0
    7.2308    2.6314    0.0000 C   0  0  0  0  0  0  0  0  0  0  0  0
    7.9747    3.9340    0.0000 C   0  0  0  0  0  0  0  0  0  0  0  0
    9.2772    3.1901    0.0000 O   0  0  0  0  0  0  0  0  0  0  0  0
    8.7186    5.2365    0.0000 C   0  0  0  0  0  0  0  0  0  0  0  0
    6.6721    4.6778    0.0000 C   0  0  0  0  0  0  0  0  0  0  0  0
   -1.0130    1.2936    0.0000 C   0  0  0  0  0  0  0  0  0  0  0  0
   -1.0059   -0.2064    0.0000 C   0  0  0  0  0  0  0  0  0  0  0  0
   -1.0200    2.7936    0.0000 C   0  0  0  0  0  0  0  0  0  0  0  0
   -2.5130    1.2865    0.0000 C   0  0  0  0  0  0  0  0  0  0  0  0
   -3.2569   -0.0160    0.0000 C   0  0  0  0  0  0  0  0  0  0  0  0
    0.6480   -1.0369    0.0000 H   0  0  0  0  0  0  0  0  0  0  0  0
  1  2  2  0  0  0  0
  1  6  1  0  0  0  0
  2  3  1  0  0  0  0
  3  4  2  0  0  0  0
  4  5  1  0  0  0  0
  5  6  2  0  0  0  0
  5 11  1  0  0  0  0
  6  7  1  0  0  0  0
  7  8  2  0  0  0  0
  8  9  1  0  0  0  0
  9 10  2  0  0  0  0
  9 11  1  0  0  0  0
  1 12  1  0  0  0  0
 13 14  1  0  0  0  0
 14 15  1  0  0  0  0
 14 16  1  6  0  0  0
 16 17  1  0  0  0  0
 16 18  1  0  0  0  0
 16 19  1  0  0  0  0
  2 15  1  0  0  0  0
  3 13  1  0  0  0  0
 20 21  2  0  0  0  0
 21 22  1  0  0  0  0
 22 23  1  0  0  0  0
 22 24  1  0  0  0  0
 22 25  1  0  0  0  0
  4 20  1  0  0  0  0
 26 27  1  0  0  0  0
 26 28  1  0  0  0  0
 26 29  1  0  0  0  0
 29 30  2  0  0  0  0
  8 26  1  0  0  0  0
  7 31  1  0  0  0  0
M  END
> <score_KierA1>
0.517599

$$$$
suggested molecule #658
 MOE2019            2D

 31 33  0  0  1  0  0  0  0  0999 V2000
    3.4992   -1.2833    0.0000 C   0  0  0  0  0  0  0  0  0  1  0  0
    4.9992   -1.2762    0.0000 C   0  0  0  0  0  0  0  0  0  2  0  0
    5.7430    0.0263    0.0000 C   0  0  0  0  0  0  0  0  0  3  0  0
    4.9869    1.3218    0.0000 C   0  0  0  0  0  0  0  0  0  4  0  0
    3.4870    1.3147    0.0000 C   0  0  0  0  0  0  0  0  0  5  0  0
    2.7431    0.0122    0.0000 C   0  0  0  0  0  0  0  0  0  6  0  0
    1.2431    0.0051    0.0000 C   0  0  0  0  0  0  0  0  0  7  0  0
    0.4870    1.3006    0.0000 C   0  0  0  0  0  0  0  0  0  8  0  0
    1.2309    2.6032    0.0000 C   0  0  0  0  0  0  0  0  0  9  0  0
    0.4748    3.8987    0.0000 O   0  0  0  0  0  0  0  0  0 10  0  0
    2.7309    2.6102    0.0000 O   0  0  0  0  0  0  0  0  0 11  0  0
    2.9041   -2.3253    0.0000 H   0  0  0  0  0  0  0  0  0  0  0  0
    7.2117   -0.2787    0.0000 O   0  0  0  0  0  0  0  0  0  0  0  0
    7.3755   -1.7697    0.0000 C   0  0  1  0  0  0  0  0  0  0  0  0
    6.0081   -2.3862    0.0000 C   0  0  0  0  0  0  0  0  0  0  0  0
    8.6781   -2.5136    0.0000 C   0  0  0  0  0  0  0  0  0  0  0  0
    9.4220   -1.2110    0.0000 C   0  0  0  0  0  0  0  0  0  0  0  0
    7.9342   -3.8161    0.0000 C   0  0  0  0  0  0  0  0  0  0  0  0
    9.9806   -3.2575    0.0000 O   0  0  0  0  0  0  0  0  0  0  0  0
    5.7308    2.6244    0.0000 C   0  0  0  0  0  0  0  0  0  0  0  0
    7.2308    2.6314    0.0000 C   0  0  0  0  0  0  0  0  0  0  0  0
    7.9747    3.9340    0.0000 C   0  0  0  0  0  0  0  0  0  0  0  0
    9.2772    3.1901    0.0000 O   0  0  0  0  0  0  0  0  0  0  0  0
    8.7186    5.2365    0.0000 C   0  0  0  0  0  0  0  0  0  0  0  0
    6.6721    4.6778    0.0000 C   0  0  0  0  0  0  0  0  0  0  0  0
   -1.0130    1.2936    0.0000 C   0  0  0  0  0  0  0  0  0  0  0  0
   -1.0059   -0.2064    0.0000 C   0  0  0  0  0  0  0  0  0  0  0  0
   -1.0200    2.7936    0.0000 C   0  0  0  0  0  0  0  0  0  0  0  0
   -2.5130    1.2865    0.0000 C   0  0  0  0  0  0  0  0  0  0  0  0
   -3.2569   -0.0160    0.0000 C   0  0  0  0  0  0  0  0  0  0  0  0
    0.6480   -1.0369    0.0000 H   0  0  0  0  0  0  0  0  0  0  0  0
  1  2  2  0  0  0  0
  1  6  1  0  0  0  0
  2  3  1  0  0  0  0
  3  4  2  0  0  0  0
  4  5  1  0  0  0  0
  5  6  2  0  0  0  0
  5 11  1  0  0  0  0
  6  7  1  0  0  0  0
  7  8  2  0  0  0  0
  8  9  1  0  0  0  0
  9 10  2  0  0  0  0
  9 11  1  0  0  0  0
  1 12  1  0  0  0  0
 13 14  1  0  0  0  0
 14 15  1  0  0  0  0
 14 16  1  6  0  0  0
 16 17  1  0  0  0  0
 16 18  1  0  0  0  0
 16 19  1  0  0  0  0
  2 15  1  0  0  0  0
  3 13  1  0  0  0  0
 20 21  2  0  0  0  0
 21 22  1  0  0  0  0
 22 23  1  0  0  0  0
 22 24  1  0  0  0  0
 22 25  1  0  0  0  0
  4 20  1  0  0  0  0
 26 27  1  0  0  0  0
 26 28  1  0  0  0  0
 26 29  1  0  0  0  0
 29 30  2  0  0  0  0
  8 26  1  0  0  0  0
  7 31  1  0  0  0  0
M  END
> <score_KierA2>
0.516774

$$$$
suggested molecule #659
 MOE2019            2D

 50 54  0  0  0  0  0  0  0  0999 V2000
    3.4992   -1.2833    0.0000 C   0  0  0  0  0  0  0  0  0  1  0  0
    4.9992   -1.2762    0.0000 C   0  0  0  0  0  0  0  0  0  2  0  0
    5.7430    0.0263    0.0000 C   0  0  0  0  0  0  0  0  0  3  0  0
    4.9869    1.3218    0.0000 C   0  0  0  0  0  0  0  0  0  4  0  0
    3.4870    1.3147    0.0000 C   0  0  0  0  0  0  0  0  0  5  0  0
    2.7431    0.0122    0.0000 C   0  0  0  0  0  0  0  0  0  6  0  0
    1.2431    0.0051    0.0000 C   0  0  0  0  0  0  0  0  0  7  0  0
    0.4870    1.3006    0.0000 C   0  0  0  0  0  0  0  0  0  8  0  0
    1.2309    2.6032    0.0000 C   0  0  0  0  0  0  0  0  0  9  0  0
    0.4748    3.8987    0.0000 O   0  0  0  0  0  0  0  0  0 10  0  0
    2.7309    2.6102    0.0000 O   0  0  0  0  0  0  0  0  0 11  0  0
    2.9041   -2.3253    0.0000 H   0  0  0  0  0  0  0  0  0  0  0  0
    7.9464   -6.4142    0.0000 C   0  0  0  0  0  0  0  0  0  0  0  0
    8.6903   -5.1116    0.0000 C   0  0  0  0  0  0  0  0  0  0  0  0
   10.1903   -5.1046    0.0000 O   0  0  0  0  0  0  0  0  0  0  0  0
    7.9342   -3.8161    0.0000 O   0  0  0  0  0  0  0  0  0  0  0  0
    8.6781   -2.5136    0.0000 C   0  0  0  0  0  0  0  0  0  0  0  0
    9.4220   -1.2110    0.0000 C   0  0  0  0  0  0  0  0  0  0  0  0
    9.9806   -3.2575    0.0000 C   0  0  0  0  0  0  0  0  0  0  0  0
    7.3755   -1.7697    0.0000 C   0  0  0  0  0  0  0  0  0  0  0  0
    6.0081   -2.3862    0.0000 C   0  0  0  0  0  0  0  0  0  0  0  0
    7.2117   -0.2787    0.0000 O   0  0  0  0  0  0  0  0  0  0  0  0
    5.9788    3.0585    0.0000 C   0  0  0  0  0  0  0  0  0  0  0  0
    7.4788    3.0656    0.0000 C   0  0  0  0  0  0  0  0  0  0  0  0
    8.2226    4.3681    0.0000 C   0  0  0  0  0  0  0  0  0  0  0  0
    7.4665    5.6636    0.0000 C   0  0  0  0  0  0  0  0  0  0  0  0
    5.9666    5.6566    0.0000 C   0  0  0  0  0  0  0  0  0  0  0  0
    5.2227    4.3540    0.0000 O   0  0  0  0  0  0  0  0  0  0  0  0
    5.2105    6.9521    0.0000 C   0  0  0  0  0  0  0  0  0  0  0  0
    5.9543    8.2546    0.0000 O   0  0  0  0  0  0  0  0  0  0  0  0
    8.2104    6.9662    0.0000 O   0  0  0  0  0  0  0  0  0  0  0  0
    9.7226    4.3752    0.0000 O   0  0  0  0  0  0  0  0  0  0  0  0
    8.2349    1.7701    0.0000 O   0  0  0  0  0  0  0  0  0  0  0  0
    9.7348    1.7772    0.0000 C   0  0  0  0  0  0  0  0  0  0  0  0
   10.4910    0.4817    0.0000 C   0  0  0  0  0  0  0  0  0  0  0  0
   11.9909    0.4887    0.0000 C   0  0  0  0  0  0  0  0  0  0  0  0
   12.7348    1.7913    0.0000 C   0  0  0  0  0  0  0  0  0  0  0  0
   11.9787    3.0868    0.0000 C   0  0  0  0  0  0  0  0  0  0  0  0
   10.4787    3.0797    0.0000 O   0  0  0  0  0  0  0  0  0  0  0  0
   12.7226    4.3893    0.0000 C   0  0  0  0  0  0  0  0  0  0  0  0
   14.2226    4.3964    0.0000 O   0  0  0  0  0  0  0  0  0  0  0  0
   14.2348    1.7983    0.0000 O   0  0  0  0  0  0  0  0  0  0  0  0
   12.7470   -0.8068    0.0000 O   0  0  0  0  0  0  0  0  0  0  0  0
    9.7471   -0.8209    0.0000 O   0  0  0  0  0  0  0  0  0  0  0  0
   -1.0130    1.2936    0.0000 C   0  0  0  0  0  0  0  0  0  0  0  0
   -1.0200    2.7936    0.0000 C   0  0  0  0  0  0  0  0  0  0  0  0
   -1.0059   -0.2064    0.0000 C   0  0  0  0  0  0  0  0  0  0  0  0
   -2.5130    1.2865    0.0000 C   0  0  0  0  0  0  0  0  0  0  0  0
   -3.2569   -0.0160    0.0000 C   0  0  0  0  0  0  0  0  0  0  0  0
    0.6480   -1.0369    0.0000 H   0  0  0  0  0  0  0  0  0  0  0  0
  1  2  1  0  0  0  0
  1  6  2  0  0  0  0
  2  3  2  0  0  0  0
  3  4  1  0  0  0  0
  4  5  2  0  0  0  0
  5  6  1  0  0  0  0
  5 11  1  0  0  0  0
  6  7  1  0  0  0  0
  7  8  2  0  0  0  0
  8  9  1  0  0  0  0
  9 10  2  0  0  0  0
  9 11  1  0  0  0  0
  1 12  1  0  0  0  0
 13 14  1  0  0  0  0
 14 15  2  0  0  0  0
 14 16  1  0  0  0  0
 16 17  1  0  0  0  0
 17 18  1  0  0  0  0
 17 19  1  0  0  0  0
 17 20  1  0  0  0  0
 20 21  1  0  0  0  0
 20 22  1  0  0  0  0
  2 21  1  0  0  0  0
  3 22  1  0  0  0  0
 23 24  1  0  0  0  0
 23 28  1  0  0  0  0
 24 25  1  0  0  0  0
 24 33  1  0  0  0  0
 25 26  1  0  0  0  0
 25 32  1  0  0  0  0
 26 27  1  0  0  0  0
 26 31  1  0  0  0  0
 27 28  1  0  0  0  0
 27 29  1  0  0  0  0
 29 30  1  0  0  0  0
 33 34  1  0  0  0  0
 34 35  1  0  0  0  0
 34 39  1  0  0  0  0
 35 36  1  0  0  0  0
 35 44  1  0  0  0  0
 36 37  1  0  0  0  0
 36 43  1  0  0  0  0
 37 38  1  0  0  0  0
 37 42  1  0  0  0  0
 38 39  1  0  0  0  0
 38 40  1  0  0  0  0
 40 41  1  0  0  0  0
  4 23  1  0  0  0  0
 45 46  1  0  0  0  0
 45 47  1  0  0  0  0
 45 48  1  0  0  0  0
 48 49  2  0  0  0  0
  8 45  1  0  0  0  0
  7 50  1  0  0  0  0
M  END
> <score_Kier2>
0.516452

$$$$
suggested molecule #660
 MOE2019            2D

 50 54  0  0  1  0  0  0  0  0999 V2000
    3.4992   -1.2833    0.0000 C   0  0  0  0  0  0  0  0  0  1  0  0
    4.9992   -1.2762    0.0000 C   0  0  0  0  0  0  0  0  0  2  0  0
    5.7430    0.0263    0.0000 C   0  0  0  0  0  0  0  0  0  3  0  0
    4.9869    1.3218    0.0000 C   0  0  0  0  0  0  0  0  0  4  0  0
    3.4870    1.3147    0.0000 C   0  0  0  0  0  0  0  0  0  5  0  0
    2.7431    0.0122    0.0000 C   0  0  0  0  0  0  0  0  0  6  0  0
    1.2431    0.0051    0.0000 C   0  0  0  0  0  0  0  0  0  7  0  0
    0.4870    1.3006    0.0000 C   0  0  0  0  0  0  0  0  0  8  0  0
    1.2309    2.6032    0.0000 C   0  0  0  0  0  0  0  0  0  9  0  0
    0.4748    3.8987    0.0000 O   0  0  0  0  0  0  0  0  0 10  0  0
    2.7309    2.6102    0.0000 O   0  0  0  0  0  0  0  0  0 11  0  0
    2.9041   -2.3253    0.0000 H   0  0  0  0  0  0  0  0  0  0  0  0
   11.2902   -5.5013    0.0000 C   0  0  0  0  0  0  0  0  0  0  0  0
    9.9877   -4.7574    0.0000 C   0  0  0  0  0  0  0  0  0  0  0  0
    8.6922   -5.5135    0.0000 O   0  0  0  0  0  0  0  0  0  0  0  0
    9.9806   -3.2575    0.0000 O   0  0  0  0  0  0  0  0  0  0  0  0
    8.6781   -2.5136    0.0000 C   0  0  0  0  0  0  0  0  0  0  0  0
    7.9342   -3.8161    0.0000 C   0  0  0  0  0  0  0  0  0  0  0  0
    9.4220   -1.2110    0.0000 C   0  0  0  0  0  0  0  0  0  0  0  0
    7.3755   -1.7697    0.0000 C   0  0  0  0  0  0  0  0  0  0  0  0
    6.0081   -2.3862    0.0000 C   0  0  0  0  0  0  0  0  0  0  0  0
    7.2117   -0.2787    0.0000 O   0  0  0  0  0  0  0  0  0  0  0  0
    5.7308    2.6244    0.0000 C   0  0  0  0  0  0  0  0  0  0  0  0
    4.9747    3.9198    0.0000 C   0  0  1  0  0  0  0  0  0  0  0  0
    5.7186    5.2224    0.0000 C   0  0  2  0  0  0  0  0  0  0  0  0
    7.2186    5.2295    0.0000 C   0  0  1  0  0  0  0  0  0  0  0  0
    7.9747    3.9340    0.0000 C   0  0  2  0  0  0  0  0  0  0  0  0
    7.2308    2.6314    0.0000 O   0  0  0  0  0  0  0  0  0  0  0  0
    9.4747    3.9410    0.0000 C   0  0  0  0  0  0  0  0  0  0  0  0
   10.2308    2.6455    0.0000 O   0  0  0  0  0  0  0  0  0  0  0  0
    7.9625    6.5320    0.0000 O   0  0  0  0  0  0  0  0  0  0  0  0
    7.2064    7.8275    0.0000 C   0  0  1  0  0  0  0  0  0  0  0  0
    7.9502    9.1301    0.0000 C   0  0  1  0  0  0  0  0  0  0  0  0
    7.1941   10.4256    0.0000 C   0  0  2  0  0  0  0  0  0  0  0  0
    5.6942   10.4185    0.0000 C   0  0  1  0  0  0  0  0  0  0  0  0
    4.9503    9.1159    0.0000 C   0  0  2  0  0  0  0  0  0  0  0  0
    5.7064    7.8204    0.0000 O   0  0  0  0  0  0  0  0  0  0  0  0
    3.4503    9.1089    0.0000 C   0  0  0  0  0  0  0  0  0  0  0  0
    2.6942   10.4044    0.0000 O   0  0  0  0  0  0  0  0  0  0  0  0
    4.9381   11.7140    0.0000 O   0  0  0  0  0  0  0  0  0  0  0  0
    7.9380   11.7281    0.0000 O   0  0  0  0  0  0  0  0  0  0  0  0
    9.4502    9.1371    0.0000 O   0  0  0  0  0  0  0  0  0  0  0  0
    4.9625    6.5179    0.0000 O   0  0  0  0  0  0  0  0  0  0  0  0
    3.4747    3.9128    0.0000 O   0  0  0  0  0  0  0  0  0  0  0  0
   -1.0130    1.2936    0.0000 C   0  0  0  0  0  0  0  0  0  0  0  0
   -1.0200    2.7936    0.0000 C   0  0  0  0  0  0  0  0  0  0  0  0
   -1.0059   -0.2064    0.0000 C   0  0  0  0  0  0  0  0  0  0  0  0
   -2.5130    1.2865    0.0000 C   0  0  0  0  0  0  0  0  0  0  0  0
   -3.2569   -0.0160    0.0000 C   0  0  0  0  0  0  0  0  0  0  0  0
    0.6480   -1.0369    0.0000 H   0  0  0  0  0  0  0  0  0  0  0  0
  1  2  2  0  0  0  0
  1  6  1  0  0  0  0
  2  3  1  0  0  0  0
  3  4  2  0  0  0  0
  4  5  1  0  0  0  0
  5  6  2  0  0  0  0
  5 11  1  0  0  0  0
  6  7  1  0  0  0  0
  7  8  2  0  0  0  0
  8  9  1  0  0  0  0
  9 10  2  0  0  0  0
  9 11  1  0  0  0  0
  1 12  1  0  0  0  0
 13 14  1  0  0  0  0
 14 15  2  0  0  0  0
 14 16  1  0  0  0  0
 16 17  1  0  0  0  0
 17 18  1  0  0  0  0
 17 19  1  0  0  0  0
 17 20  1  0  0  0  0
 20 21  1  0  0  0  0
 20 22  1  0  0  0  0
  2 21  1  0  0  0  0
  3 22  1  0  0  0  0
 23 24  1  0  0  0  0
 23 28  1  0  0  0  0
 24 25  1  0  0  0  0
 24 44  1  1  0  0  0
 25 26  1  0  0  0  0
 25 43  1  6  0  0  0
 26 27  1  0  0  0  0
 26 31  1  1  0  0  0
 27 28  1  0  0  0  0
 27 29  1  6  0  0  0
 29 30  1  0  0  0  0
 32 31  1  1  0  0  0
 32 33  1  0  0  0  0
 32 37  1  0  0  0  0
 33 34  1  0  0  0  0
 33 42  1  6  0  0  0
 34 35  1  0  0  0  0
 34 41  1  1  0  0  0
 35 36  1  0  0  0  0
 35 40  1  6  0  0  0
 36 37  1  0  0  0  0
 36 38  1  1  0  0  0
 38 39  1  0  0  0  0
  4 23  1  0  0  0  0
 45 46  1  0  0  0  0
 45 47  1  0  0  0  0
 45 48  1  0  0  0  0
 48 49  2  0  0  0  0
  8 45  1  0  0  0  0
  7 50  1  0  0  0  0
M  END
> <score_Kier2>
0.516452

$$$$
suggested molecule #661
 MOE2019            2D

 38 41  0  0  1  0  0  0  0  0999 V2000
    3.4992   -1.2833    0.0000 C   0  0  0  0  0  0  0  0  0  1  0  0
    4.9992   -1.2762    0.0000 C   0  0  0  0  0  0  0  0  0  2  0  0
    5.7430    0.0263    0.0000 C   0  0  0  0  0  0  0  0  0  3  0  0
    4.9869    1.3218    0.0000 C   0  0  0  0  0  0  0  0  0  4  0  0
    3.4870    1.3147    0.0000 C   0  0  0  0  0  0  0  0  0  5  0  0
    2.7431    0.0122    0.0000 C   0  0  0  0  0  0  0  0  0  6  0  0
    1.2431    0.0051    0.0000 C   0  0  0  0  0  0  0  0  0  7  0  0
    0.4870    1.3006    0.0000 C   0  0  0  0  0  0  0  0  0  8  0  0
    1.2309    2.6032    0.0000 C   0  0  0  0  0  0  0  0  0  9  0  0
    0.4748    3.8987    0.0000 O   0  0  0  0  0  0  0  0  0 10  0  0
    2.7309    2.6102    0.0000 O   0  0  0  0  0  0  0  0  0 11  0  0
    2.9041   -2.3253    0.0000 H   0  0  0  0  0  0  0  0  0  0  0  0
   11.2902   -5.5013    0.0000 C   0  0  0  0  0  0  0  0  0  0  0  0
    9.9877   -4.7574    0.0000 C   0  0  0  0  0  0  0  0  0  0  0  0
    8.6922   -5.5135    0.0000 O   0  0  0  0  0  0  0  0  0  0  0  0
    9.9806   -3.2575    0.0000 O   0  0  0  0  0  0  0  0  0  0  0  0
    8.6781   -2.5136    0.0000 C   0  0  0  0  0  0  0  0  0  0  0  0
    7.9342   -3.8161    0.0000 C   0  0  0  0  0  0  0  0  0  0  0  0
    9.4220   -1.2110    0.0000 C   0  0  0  0  0  0  0  0  0  0  0  0
    7.3755   -1.7697    0.0000 C   0  0  0  0  0  0  0  0  0  0  0  0
    6.0081   -2.3862    0.0000 C   0  0  0  0  0  0  0  0  0  0  0  0
    7.2117   -0.2787    0.0000 O   0  0  0  0  0  0  0  0  0  0  0  0
    4.9625    6.5179    0.0000 C   0  0  0  0  0  0  0  0  0  0  0  0
    5.7186    5.2224    0.0000 C   0  0  1  0  0  0  0  0  0  0  0  0
    7.2186    5.2295    0.0000 C   0  0  1  0  0  0  0  0  0  0  0  0
    7.9747    3.9340    0.0000 C   0  0  2  0  0  0  0  0  0  0  0  0
    7.2308    2.6314    0.0000 C   0  0  2  0  0  0  0  0  0  0  0  0
    5.7308    2.6244    0.0000 C   0  0  0  0  0  0  0  0  0  0  0  0
    4.9747    3.9198    0.0000 O   0  0  0  0  0  0  0  0  0  0  0  0
    7.9869    1.3359    0.0000 O   0  0  0  0  0  0  0  0  0  0  0  0
    9.4747    3.9410    0.0000 O   0  0  0  0  0  0  0  0  0  0  0  0
    7.9625    6.5320    0.0000 O   0  0  0  0  0  0  0  0  0  0  0  0
   -1.0130    1.2936    0.0000 C   0  0  0  0  0  0  0  0  0  0  0  0
   -1.0200    2.7936    0.0000 C   0  0  0  0  0  0  0  0  0  0  0  0
   -1.0059   -0.2064    0.0000 C   0  0  0  0  0  0  0  0  0  0  0  0
   -2.5130    1.2865    0.0000 C   0  0  0  0  0  0  0  0  0  0  0  0
   -3.2569   -0.0160    0.0000 C   0  0  0  0  0  0  0  0  0  0  0  0
    0.6480   -1.0369    0.0000 H   0  0  0  0  0  0  0  0  0  0  0  0
  1  2  2  0  0  0  0
  1  6  1  0  0  0  0
  2  3  1  0  0  0  0
  3  4  2  0  0  0  0
  4  5  1  0  0  0  0
  5  6  2  0  0  0  0
  5 11  1  0  0  0  0
  6  7  1  0  0  0  0
  7  8  2  0  0  0  0
  8  9  1  0  0  0  0
  9 10  2  0  0  0  0
  9 11  1  0  0  0  0
  1 12  1  0  0  0  0
 13 14  1  0  0  0  0
 14 15  2  0  0  0  0
 14 16  1  0  0  0  0
 16 17  1  0  0  0  0
 17 18  1  0  0  0  0
 17 19  1  0  0  0  0
 17 20  1  0  0  0  0
 20 21  1  0  0  0  0
 20 22  1  0  0  0  0
  2 21  1  0  0  0  0
  3 22  1  0  0  0  0
 24 23  1  1  0  0  0
 24 25  1  0  0  0  0
 24 29  1  0  0  0  0
 25 26  1  0  0  0  0
 25 32  1  6  0  0  0
 26 27  1  0  0  0  0
 26 31  1  1  0  0  0
 27 28  1  0  0  0  0
 27 30  1  1  0  0  0
 28 29  1  0  0  0  0
  4 28  1  0  0  0  0
 33 34  1  0  0  0  0
 33 35  1  0  0  0  0
 33 36  1  0  0  0  0
 36 37  2  0  0  0  0
  8 33  1  0  0  0  0
  7 38  1  0  0  0  0
M  END
> <score_Kier2>
0.51646

$$$$
suggested molecule #662
 MOE2019            2D

 49 53  0  0  1  0  0  0  0  0999 V2000
    3.4992   -1.2833    0.0000 C   0  0  0  0  0  0  0  0  0  1  0  0
    4.9992   -1.2762    0.0000 C   0  0  0  0  0  0  0  0  0  2  0  0
    5.7430    0.0263    0.0000 C   0  0  0  0  0  0  0  0  0  3  0  0
    4.9869    1.3218    0.0000 C   0  0  0  0  0  0  0  0  0  4  0  0
    3.4870    1.3147    0.0000 C   0  0  0  0  0  0  0  0  0  5  0  0
    2.7431    0.0122    0.0000 C   0  0  0  0  0  0  0  0  0  6  0  0
    1.2431    0.0051    0.0000 C   0  0  0  0  0  0  0  0  0  7  0  0
    0.4870    1.3006    0.0000 C   0  0  0  0  0  0  0  0  0  8  0  0
    1.2309    2.6032    0.0000 C   0  0  0  0  0  0  0  0  0  9  0  0
    0.4748    3.8987    0.0000 O   0  0  0  0  0  0  0  0  0 10  0  0
    2.7309    2.6102    0.0000 O   0  0  0  0  0  0  0  0  0 11  0  0
    2.9041   -2.3253    0.0000 H   0  0  0  0  0  0  0  0  0  0  0  0
    7.9464   -6.4142    0.0000 C   0  0  0  0  0  0  0  0  0  0  0  0
    8.6903   -5.1116    0.0000 C   0  0  0  0  0  0  0  0  0  0  0  0
   10.1903   -5.1046    0.0000 O   0  0  0  0  0  0  0  0  0  0  0  0
    7.9342   -3.8161    0.0000 O   0  0  0  0  0  0  0  0  0  0  0  0
    8.6781   -2.5136    0.0000 C   0  0  0  0  0  0  0  0  0  0  0  0
    9.4220   -1.2110    0.0000 C   0  0  0  0  0  0  0  0  0  0  0  0
    9.9806   -3.2575    0.0000 C   0  0  0  0  0  0  0  0  0  0  0  0
    7.3755   -1.7697    0.0000 C   0  0  0  0  0  0  0  0  0  0  0  0
    6.0081   -2.3862    0.0000 C   0  0  0  0  0  0  0  0  0  0  0  0
    7.2117   -0.2787    0.0000 O   0  0  0  0  0  0  0  0  0  0  0  0
   12.7226    4.3893    0.0000 C   0  0  0  0  0  0  0  0  0  0  0  0
   11.9787    3.0868    0.0000 C   0  0  1  0  0  0  0  0  0  0  0  0
   12.7348    1.7913    0.0000 C   0  0  1  0  0  0  0  0  0  0  0  0
   11.9909    0.4887    0.0000 C   0  0  2  0  0  0  0  0  0  0  0  0
   10.4910    0.4817    0.0000 C   0  0  2  0  0  0  0  0  0  0  0  0
    9.7348    1.7772    0.0000 C   0  0  1  0  0  0  0  0  0  0  0  0
   10.4787    3.0797    0.0000 O   0  0  0  0  0  0  0  0  0  0  0  0
    8.2349    1.7701    0.0000 O   0  0  0  0  0  0  0  0  0  0  0  0
    7.4788    3.0656    0.0000 C   0  0  2  0  0  0  0  0  0  0  0  0
    8.2226    4.3681    0.0000 C   0  0  2  0  0  0  0  0  0  0  0  0
    7.4665    5.6636    0.0000 C   0  0  1  0  0  0  0  0  0  0  0  0
    5.9666    5.6566    0.0000 C   0  0  2  0  0  0  0  0  0  0  0  0
    5.2227    4.3540    0.0000 O   0  0  0  0  0  0  0  0  0  0  0  0
    5.9788    3.0585    0.0000 C   0  0  0  0  0  0  0  0  0  0  0  0
    5.2105    6.9521    0.0000 C   0  0  0  0  0  0  0  0  0  0  0  0
    5.9543    8.2546    0.0000 O   0  0  0  0  0  0  0  0  0  0  0  0
    8.2104    6.9662    0.0000 O   0  0  0  0  0  0  0  0  0  0  0  0
    9.7226    4.3752    0.0000 O   0  0  0  0  0  0  0  0  0  0  0  0
    9.7471   -0.8209    0.0000 O   0  0  0  0  0  0  0  0  0  0  0  0
   12.7470   -0.8068    0.0000 O   0  0  0  0  0  0  0  0  0  0  0  0
   14.2348    1.7983    0.0000 O   0  0  0  0  0  0  0  0  0  0  0  0
   -1.0130    1.2936    0.0000 C   0  0  0  0  0  0  0  0  0  0  0  0
   -1.0200    2.7936    0.0000 C   0  0  0  0  0  0  0  0  0  0  0  0
   -1.0059   -0.2064    0.0000 C   0  0  0  0  0  0  0  0  0  0  0  0
   -2.5130    1.2865    0.0000 C   0  0  0  0  0  0  0  0  0  0  0  0
   -3.2569   -0.0160    0.0000 C   0  0  0  0  0  0  0  0  0  0  0  0
    0.6480   -1.0369    0.0000 H   0  0  0  0  0  0  0  0  0  0  0  0
  1  2  2  0  0  0  0
  1  6  1  0  0  0  0
  2  3  1  0  0  0  0
  3  4  2  0  0  0  0
  4  5  1  0  0  0  0
  5  6  2  0  0  0  0
  5 11  1  0  0  0  0
  6  7  1  0  0  0  0
  7  8  2  0  0  0  0
  8  9  1  0  0  0  0
  9 10  2  0  0  0  0
  9 11  1  0  0  0  0
  1 12  1  0  0  0  0
 13 14  1  0  0  0  0
 14 15  2  0  0  0  0
 14 16  1  0  0  0  0
 16 17  1  0  0  0  0
 17 18  1  0  0  0  0
 17 19  1  0  0  0  0
 17 20  1  0  0  0  0
 20 21  1  0  0  0  0
 20 22  1  0  0  0  0
  2 21  1  0  0  0  0
  3 22  1  0  0  0  0
 24 23  1  6  0  0  0
 24 25  1  0  0  0  0
 24 29  1  0  0  0  0
 25 26  1  0  0  0  0
 25 43  1  1  0  0  0
 26 27  1  0  0  0  0
 26 42  1  6  0  0  0
 27 28  1  0  0  0  0
 27 41  1  6  0  0  0
 28 29  1  0  0  0  0
 28 30  1  1  0  0  0
 31 30  1  6  0  0  0
 31 32  1  0  0  0  0
 31 36  1  0  0  0  0
 32 33  1  0  0  0  0
 32 40  1  1  0  0  0
 33 34  1  0  0  0  0
 33 39  1  6  0  0  0
 34 35  1  0  0  0  0
 34 37  1  1  0  0  0
 35 36  1  0  0  0  0
 37 38  1  0  0  0  0
  4 36  1  0  0  0  0
 44 45  1  0  0  0  0
 44 46  1  0  0  0  0
 44 47  1  0  0  0  0
 47 48  2  0  0  0  0
  8 44  1  0  0  0  0
  7 49  1  0  0  0  0
M  END
> <score_Kier2>
0.516457

$$$$
suggested molecule #663
 MOE2019            2D

 47 50  0  0  1  0  0  0  0  0999 V2000
    3.4992   -1.2833    0.0000 C   0  0  0  0  0  0  0  0  0  1  0  0
    4.9992   -1.2762    0.0000 C   0  0  0  0  0  0  0  0  0  2  0  0
    5.7430    0.0263    0.0000 C   0  0  0  0  0  0  0  0  0  3  0  0
    4.9869    1.3218    0.0000 C   0  0  0  0  0  0  0  0  0  4  0  0
    3.4870    1.3147    0.0000 C   0  0  0  0  0  0  0  0  0  5  0  0
    2.7431    0.0122    0.0000 C   0  0  0  0  0  0  0  0  0  6  0  0
    1.2431    0.0051    0.0000 C   0  0  0  0  0  0  0  0  0  7  0  0
    0.4870    1.3006    0.0000 C   0  0  0  0  0  0  0  0  0  8  0  0
    1.2309    2.6032    0.0000 C   0  0  0  0  0  0  0  0  0  9  0  0
    0.4748    3.8987    0.0000 O   0  0  0  0  0  0  0  0  0 10  0  0
    2.7309    2.6102    0.0000 O   0  0  0  0  0  0  0  0  0 11  0  0
    2.9041   -2.3253    0.0000 H   0  0  0  0  0  0  0  0  0  0  0  0
   10.1903   -5.1046    0.0000 C   0  0  0  0  0  0  0  0  0  0  0  0
    8.6903   -5.1116    0.0000 C   0  0  0  0  0  0  0  0  0  0  0  0
    7.9464   -6.4142    0.0000 O   0  0  0  0  0  0  0  0  0  0  0  0
    7.9342   -3.8161    0.0000 O   0  0  0  0  0  0  0  0  0  0  0  0
    8.6781   -2.5136    0.0000 C   0  0  0  0  0  0  0  0  0  0  0  0
    9.4220   -1.2110    0.0000 C   0  0  0  0  0  0  0  0  0  0  0  0
    9.9806   -3.2575    0.0000 C   0  0  0  0  0  0  0  0  0  0  0  0
    7.3755   -1.7697    0.0000 C   0  0  0  0  0  0  0  0  0  0  0  0
    6.0081   -2.3862    0.0000 C   0  0  0  0  0  0  0  0  0  0  0  0
    7.2117   -0.2787    0.0000 O   0  0  0  0  0  0  0  0  0  0  0  0
    9.2824    2.0920    0.0000 C   0  0  0  0  0  0  0  0  0  0  0  0
    7.9869    1.3359    0.0000 C   0  0  0  0  0  0  0  0  0  0  0  0
    7.2308    2.6314    0.0000 C   0  0  1  0  0  0  0  0  0  0  0  0
    5.7308    2.6244    0.0000 C   0  0  0  0  0  0  0  0  0  0  0  0
    6.6914    0.5798    0.0000 O   0  0  0  0  0  0  0  0  0  0  0  0
    4.9747    3.9198    0.0000 O   0  0  0  0  0  0  0  0  0  0  0  0
    7.9747    3.9340    0.0000 O   0  0  0  0  0  0  0  0  0  0  0  0
    7.2186    5.2295    0.0000 C   0  0  1  0  0  0  0  0  0  0  0  0
    7.9625    6.5320    0.0000 C   0  0  1  0  0  0  0  0  0  0  0  0
    7.2064    7.8275    0.0000 C   0  0  2  0  0  0  0  0  0  0  0  0
    5.7064    7.8204    0.0000 C   0  0  1  0  0  0  0  0  0  0  0  0
    4.9625    6.5179    0.0000 C   0  0  2  0  0  0  0  0  0  0  0  0
    5.7186    5.2224    0.0000 O   0  0  0  0  0  0  0  0  0  0  0  0
    3.4625    6.5108    0.0000 C   0  0  0  0  0  0  0  0  0  0  0  0
    2.7064    7.8063    0.0000 O   0  0  0  0  0  0  0  0  0  0  0  0
    4.9503    9.1159    0.0000 O   0  0  0  0  0  0  0  0  0  0  0  0
    7.9502    9.1301    0.0000 O   0  0  0  0  0  0  0  0  0  0  0  0
    9.4625    6.5391    0.0000 O   0  0  0  0  0  0  0  0  0  0  0  0
    8.7430    0.0404    0.0000 C   0  0  0  0  0  0  0  0  0  0  0  0
   -1.0130    1.2936    0.0000 C   0  0  0  0  0  0  0  0  0  0  0  0
   -1.0059   -0.2064    0.0000 C   0  0  0  0  0  0  0  0  0  0  0  0
   -1.0200    2.7936    0.0000 C   0  0  0  0  0  0  0  0  0  0  0  0
   -2.5130    1.2865    0.0000 C   0  0  0  0  0  0  0  0  0  0  0  0
   -3.2569   -0.0160    0.0000 C   0  0  0  0  0  0  0  0  0  0  0  0
    0.6480   -1.0369    0.0000 H   0  0  0  0  0  0  0  0  0  0  0  0
  1  2  2  0  0  0  0
  1  6  1  0  0  0  0
  2  3  1  0  0  0  0
  3  4  2  0  0  0  0
  4  5  1  0  0  0  0
  5  6  2  0  0  0  0
  5 11  1  0  0  0  0
  6  7  1  0  0  0  0
  7  8  2  0  0  0  0
  8  9  1  0  0  0  0
  9 10  2  0  0  0  0
  9 11  1  0  0  0  0
  1 12  1  0  0  0  0
 13 14  1  0  0  0  0
 14 15  2  0  0  0  0
 14 16  1  0  0  0  0
 16 17  1  0  0  0  0
 17 18  1  0  0  0  0
 17 19  1  0  0  0  0
 17 20  1  0  0  0  0
 20 21  1  0  0  0  0
 20 22  1  0  0  0  0
  2 21  1  0  0  0  0
  3 22  1  0  0  0  0
 23 24  1  0  0  0  0
 24 25  1  0  0  0  0
 24 27  1  0  0  0  0
 24 41  1  0  0  0  0
 25 26  1  0  0  0  0
 25 29  1  6  0  0  0
 26 28  1  0  0  0  0
 30 29  1  1  0  0  0
 30 31  1  0  0  0  0
 30 35  1  0  0  0  0
 31 32  1  0  0  0  0
 31 40  1  6  0  0  0
 32 33  1  0  0  0  0
 32 39  1  1  0  0  0
 33 34  1  0  0  0  0
 33 38  1  6  0  0  0
 34 35  1  0  0  0  0
 34 36  1  1  0  0  0
 36 37  1  0  0  0  0
  4 26  1  0  0  0  0
 42 43  1  0  0  0  0
 42 44  1  0  0  0  0
 42 45  1  0  0  0  0
 45 46  2  0  0  0  0
  8 42  1  0  0  0  0
  7 47  1  0  0  0  0
M  END
> <score_Kier1>
0.517724

$$$$
suggested molecule #664
 MOE2019            2D

 47 50  0  0  1  0  0  0  0  0999 V2000
    3.4992   -1.2833    0.0000 C   0  0  0  0  0  0  0  0  0  1  0  0
    4.9992   -1.2762    0.0000 C   0  0  0  0  0  0  0  0  0  2  0  0
    5.7430    0.0263    0.0000 C   0  0  0  0  0  0  0  0  0  3  0  0
    4.9869    1.3218    0.0000 C   0  0  0  0  0  0  0  0  0  4  0  0
    3.4870    1.3147    0.0000 C   0  0  0  0  0  0  0  0  0  5  0  0
    2.7431    0.0122    0.0000 C   0  0  0  0  0  0  0  0  0  6  0  0
    1.2431    0.0051    0.0000 C   0  0  0  0  0  0  0  0  0  7  0  0
    0.4870    1.3006    0.0000 C   0  0  0  0  0  0  0  0  0  8  0  0
    1.2309    2.6032    0.0000 C   0  0  0  0  0  0  0  0  0  9  0  0
    0.4748    3.8987    0.0000 O   0  0  0  0  0  0  0  0  0 10  0  0
    2.7309    2.6102    0.0000 O   0  0  0  0  0  0  0  0  0 11  0  0
    2.9041   -2.3253    0.0000 H   0  0  0  0  0  0  0  0  0  0  0  0
   10.1903   -5.1046    0.0000 C   0  0  0  0  0  0  0  0  0  0  0  0
    8.6903   -5.1116    0.0000 C   0  0  0  0  0  0  0  0  0  0  0  0
    7.9464   -6.4142    0.0000 O   0  0  0  0  0  0  0  0  0  0  0  0
    7.9342   -3.8161    0.0000 O   0  0  0  0  0  0  0  0  0  0  0  0
    8.6781   -2.5136    0.0000 C   0  0  0  0  0  0  0  0  0  0  0  0
    9.4220   -1.2110    0.0000 C   0  0  0  0  0  0  0  0  0  0  0  0
    9.9806   -3.2575    0.0000 C   0  0  0  0  0  0  0  0  0  0  0  0
    7.3755   -1.7697    0.0000 C   0  0  0  0  0  0  0  0  0  0  0  0
    6.0081   -2.3862    0.0000 C   0  0  0  0  0  0  0  0  0  0  0  0
    7.2117   -0.2787    0.0000 O   0  0  0  0  0  0  0  0  0  0  0  0
    9.2824    2.0920    0.0000 C   0  0  0  0  0  0  0  0  0  0  0  0
    7.9869    1.3359    0.0000 C   0  0  0  0  0  0  0  0  0  0  0  0
    7.2308    2.6314    0.0000 C   0  0  1  0  0  0  0  0  0  0  0  0
    5.7308    2.6244    0.0000 C   0  0  0  0  0  0  0  0  0  0  0  0
    6.6914    0.5798    0.0000 O   0  0  0  0  0  0  0  0  0  0  0  0
    4.9747    3.9198    0.0000 O   0  0  0  0  0  0  0  0  0  0  0  0
    7.9747    3.9340    0.0000 O   0  0  0  0  0  0  0  0  0  0  0  0
    7.2186    5.2295    0.0000 C   0  0  1  0  0  0  0  0  0  0  0  0
    7.9625    6.5320    0.0000 C   0  0  1  0  0  0  0  0  0  0  0  0
    7.2064    7.8275    0.0000 C   0  0  2  0  0  0  0  0  0  0  0  0
    5.7064    7.8204    0.0000 C   0  0  1  0  0  0  0  0  0  0  0  0
    4.9625    6.5179    0.0000 C   0  0  2  0  0  0  0  0  0  0  0  0
    5.7186    5.2224    0.0000 O   0  0  0  0  0  0  0  0  0  0  0  0
    3.4625    6.5108    0.0000 C   0  0  0  0  0  0  0  0  0  0  0  0
    2.7064    7.8063    0.0000 O   0  0  0  0  0  0  0  0  0  0  0  0
    4.9503    9.1159    0.0000 O   0  0  0  0  0  0  0  0  0  0  0  0
    7.9502    9.1301    0.0000 O   0  0  0  0  0  0  0  0  0  0  0  0
    9.4625    6.5391    0.0000 O   0  0  0  0  0  0  0  0  0  0  0  0
    8.7430    0.0404    0.0000 C   0  0  0  0  0  0  0  0  0  0  0  0
   -1.0130    1.2936    0.0000 C   0  0  0  0  0  0  0  0  0  0  0  0
   -1.0059   -0.2064    0.0000 C   0  0  0  0  0  0  0  0  0  0  0  0
   -1.0200    2.7936    0.0000 C   0  0  0  0  0  0  0  0  0  0  0  0
   -2.5130    1.2865    0.0000 C   0  0  0  0  0  0  0  0  0  0  0  0
   -3.2569   -0.0160    0.0000 C   0  0  0  0  0  0  0  0  0  0  0  0
    0.6480   -1.0369    0.0000 H   0  0  0  0  0  0  0  0  0  0  0  0
  1  2  2  0  0  0  0
  1  6  1  0  0  0  0
  2  3  1  0  0  0  0
  3  4  2  0  0  0  0
  4  5  1  0  0  0  0
  5  6  2  0  0  0  0
  5 11  1  0  0  0  0
  6  7  1  0  0  0  0
  7  8  2  0  0  0  0
  8  9  1  0  0  0  0
  9 10  2  0  0  0  0
  9 11  1  0  0  0  0
  1 12  1  0  0  0  0
 13 14  1  0  0  0  0
 14 15  2  0  0  0  0
 14 16  1  0  0  0  0
 16 17  1  0  0  0  0
 17 18  1  0  0  0  0
 17 19  1  0  0  0  0
 17 20  1  0  0  0  0
 20 21  1  0  0  0  0
 20 22  1  0  0  0  0
  2 21  1  0  0  0  0
  3 22  1  0  0  0  0
 23 24  1  0  0  0  0
 24 25  1  0  0  0  0
 24 27  1  0  0  0  0
 24 41  1  0  0  0  0
 25 26  1  0  0  0  0
 25 29  1  6  0  0  0
 26 28  1  0  0  0  0
 30 29  1  1  0  0  0
 30 31  1  0  0  0  0
 30 35  1  0  0  0  0
 31 32  1  0  0  0  0
 31 40  1  6  0  0  0
 32 33  1  0  0  0  0
 32 39  1  1  0  0  0
 33 34  1  0  0  0  0
 33 38  1  6  0  0  0
 34 35  1  0  0  0  0
 34 36  1  1  0  0  0
 36 37  1  0  0  0  0
  4 26  1  0  0  0  0
 42 43  1  0  0  0  0
 42 44  1  0  0  0  0
 42 45  1  0  0  0  0
 45 46  2  0  0  0  0
  8 42  1  0  0  0  0
  7 47  1  0  0  0  0
M  END
> <score_Kier2>
0.516504

$$$$
suggested molecule #665
 MOE2019            2D

 46 49  0  0  1  0  0  0  0  0999 V2000
    3.4992   -1.2833    0.0000 C   0  0  0  0  0  0  0  0  0  1  0  0
    4.9992   -1.2762    0.0000 C   0  0  0  0  0  0  0  0  0  2  0  0
    5.7430    0.0263    0.0000 C   0  0  0  0  0  0  0  0  0  3  0  0
    4.9869    1.3218    0.0000 C   0  0  0  0  0  0  0  0  0  4  0  0
    3.4870    1.3147    0.0000 C   0  0  0  0  0  0  0  0  0  5  0  0
    2.7431    0.0122    0.0000 C   0  0  0  0  0  0  0  0  0  6  0  0
    1.2431    0.0051    0.0000 C   0  0  0  0  0  0  0  0  0  7  0  0
    0.4870    1.3006    0.0000 C   0  0  0  0  0  0  0  0  0  8  0  0
    1.2309    2.6032    0.0000 C   0  0  0  0  0  0  0  0  0  9  0  0
    0.4748    3.8987    0.0000 O   0  0  0  0  0  0  0  0  0 10  0  0
    2.7309    2.6102    0.0000 O   0  0  0  0  0  0  0  0  0 11  0  0
    2.9041   -2.3253    0.0000 H   0  0  0  0  0  0  0  0  0  0  0  0
   11.2902   -5.5013    0.0000 C   0  0  0  0  0  0  0  0  0  0  0  0
    9.9877   -4.7574    0.0000 C   0  0  0  0  0  0  0  0  0  0  0  0
    8.6922   -5.5135    0.0000 O   0  0  0  0  0  0  0  0  0  0  0  0
    9.9806   -3.2575    0.0000 O   0  0  0  0  0  0  0  0  0  0  0  0
    8.6781   -2.5136    0.0000 C   0  0  0  0  0  0  0  0  0  0  0  0
    7.9342   -3.8161    0.0000 C   0  0  0  0  0  0  0  0  0  0  0  0
    9.4220   -1.2110    0.0000 C   0  0  0  0  0  0  0  0  0  0  0  0
    7.3755   -1.7697    0.0000 C   0  0  0  0  0  0  0  0  0  0  0  0
    6.0081   -2.3862    0.0000 C   0  0  0  0  0  0  0  0  0  0  0  0
    7.2117   -0.2787    0.0000 O   0  0  0  0  0  0  0  0  0  0  0  0
    7.0212    4.4785    0.0000 C   0  0  0  0  0  0  0  0  0  0  0  0
    5.7186    5.2224    0.0000 C   0  0  0  0  0  0  0  0  0  0  0  0
    4.4161    5.9663    0.0000 C   0  0  0  0  0  0  0  0  0  0  0  0
    4.9747    3.9198    0.0000 C   0  0  0  0  0  0  0  0  0  0  0  0
    5.7308    2.6244    0.0000 C   0  0  0  0  0  0  0  0  0  0  0  0
    3.4747    3.9128    0.0000 O   0  0  0  0  0  0  0  0  0  0  0  0
    6.4625    6.5250    0.0000 O   0  0  0  0  0  0  0  0  0  0  0  0
    5.7064    7.8204    0.0000 C   0  0  1  0  0  0  0  0  0  0  0  0
    6.4503    9.1230    0.0000 C   0  0  1  0  0  0  0  0  0  0  0  0
    5.6942   10.4185    0.0000 C   0  0  2  0  0  0  0  0  0  0  0  0
    4.1942   10.4114    0.0000 C   0  0  1  0  0  0  0  0  0  0  0  0
    3.4503    9.1089    0.0000 C   0  0  2  0  0  0  0  0  0  0  0  0
    4.2064    7.8134    0.0000 O   0  0  0  0  0  0  0  0  0  0  0  0
    1.9503    9.1018    0.0000 C   0  0  0  0  0  0  0  0  0  0  0  0
    1.1942   10.3973    0.0000 O   0  0  0  0  0  0  0  0  0  0  0  0
    3.4381   11.7069    0.0000 O   0  0  0  0  0  0  0  0  0  0  0  0
    6.4380   11.7210    0.0000 O   0  0  0  0  0  0  0  0  0  0  0  0
    7.9502    9.1301    0.0000 O   0  0  0  0  0  0  0  0  0  0  0  0
   -1.0130    1.2936    0.0000 C   0  0  0  0  0  0  0  0  0  0  0  0
   -1.0200    2.7936    0.0000 C   0  0  0  0  0  0  0  0  0  0  0  0
   -1.0059   -0.2064    0.0000 C   0  0  0  0  0  0  0  0  0  0  0  0
   -2.5130    1.2865    0.0000 C   0  0  0  0  0  0  0  0  0  0  0  0
   -3.2569   -0.0160    0.0000 C   0  0  0  0  0  0  0  0  0  0  0  0
    0.6480   -1.0369    0.0000 H   0  0  0  0  0  0  0  0  0  0  0  0
  1  2  2  0  0  0  0
  1  6  1  0  0  0  0
  2  3  1  0  0  0  0
  3  4  2  0  0  0  0
  4  5  1  0  0  0  0
  5  6  2  0  0  0  0
  5 11  1  0  0  0  0
  6  7  1  0  0  0  0
  7  8  2  0  0  0  0
  8  9  1  0  0  0  0
  9 10  2  0  0  0  0
  9 11  1  0  0  0  0
  1 12  1  0  0  0  0
 13 14  1  0  0  0  0
 14 15  2  0  0  0  0
 14 16  1  0  0  0  0
 16 17  1  0  0  0  0
 17 18  1  0  0  0  0
 17 19  1  0  0  0  0
 17 20  1  0  0  0  0
 20 21  1  0  0  0  0
 20 22  1  0  0  0  0
  2 21  1  0  0  0  0
  3 22  1  0  0  0  0
 23 24  1  0  0  0  0
 24 25  1  0  0  0  0
 24 26  1  0  0  0  0
 24 29  1  0  0  0  0
 26 27  1  0  0  0  0
 26 28  1  0  0  0  0
 30 29  1  1  0  0  0
 30 31  1  0  0  0  0
 30 35  1  0  0  0  0
 31 32  1  0  0  0  0
 31 40  1  6  0  0  0
 32 33  1  0  0  0  0
 32 39  1  1  0  0  0
 33 34  1  0  0  0  0
 33 38  1  6  0  0  0
 34 35  1  0  0  0  0
 34 36  1  1  0  0  0
 36 37  1  0  0  0  0
  4 27  1  0  0  0  0
 41 42  1  0  0  0  0
 41 43  1  0  0  0  0
 41 44  1  0  0  0  0
 44 45  2  0  0  0  0
  8 41  1  0  0  0  0
  7 46  1  0  0  0  0
M  END
> <score_Kier1>
0.51773

$$$$
suggested molecule #666
 MOE2019            2D

 46 49  0  0  1  0  0  0  0  0999 V2000
    3.4992   -1.2833    0.0000 C   0  0  0  0  0  0  0  0  0  1  0  0
    4.9992   -1.2762    0.0000 C   0  0  0  0  0  0  0  0  0  2  0  0
    5.7430    0.0263    0.0000 C   0  0  0  0  0  0  0  0  0  3  0  0
    4.9869    1.3218    0.0000 C   0  0  0  0  0  0  0  0  0  4  0  0
    3.4870    1.3147    0.0000 C   0  0  0  0  0  0  0  0  0  5  0  0
    2.7431    0.0122    0.0000 C   0  0  0  0  0  0  0  0  0  6  0  0
    1.2431    0.0051    0.0000 C   0  0  0  0  0  0  0  0  0  7  0  0
    0.4870    1.3006    0.0000 C   0  0  0  0  0  0  0  0  0  8  0  0
    1.2309    2.6032    0.0000 C   0  0  0  0  0  0  0  0  0  9  0  0
    0.4748    3.8987    0.0000 O   0  0  0  0  0  0  0  0  0 10  0  0
    2.7309    2.6102    0.0000 O   0  0  0  0  0  0  0  0  0 11  0  0
    2.9041   -2.3253    0.0000 H   0  0  0  0  0  0  0  0  0  0  0  0
   11.2902   -5.5013    0.0000 C   0  0  0  0  0  0  0  0  0  0  0  0
    9.9877   -4.7574    0.0000 C   0  0  0  0  0  0  0  0  0  0  0  0
    8.6922   -5.5135    0.0000 O   0  0  0  0  0  0  0  0  0  0  0  0
    9.9806   -3.2575    0.0000 O   0  0  0  0  0  0  0  0  0  0  0  0
    8.6781   -2.5136    0.0000 C   0  0  0  0  0  0  0  0  0  0  0  0
    7.9342   -3.8161    0.0000 C   0  0  0  0  0  0  0  0  0  0  0  0
    9.4220   -1.2110    0.0000 C   0  0  0  0  0  0  0  0  0  0  0  0
    7.3755   -1.7697    0.0000 C   0  0  0  0  0  0  0  0  0  0  0  0
    6.0081   -2.3862    0.0000 C   0  0  0  0  0  0  0  0  0  0  0  0
    7.2117   -0.2787    0.0000 O   0  0  0  0  0  0  0  0  0  0  0  0
    7.0212    4.4785    0.0000 C   0  0  0  0  0  0  0  0  0  0  0  0
    5.7186    5.2224    0.0000 C   0  0  0  0  0  0  0  0  0  0  0  0
    4.4161    5.9663    0.0000 C   0  0  0  0  0  0  0  0  0  0  0  0
    4.9747    3.9198    0.0000 C   0  0  0  0  0  0  0  0  0  0  0  0
    5.7308    2.6244    0.0000 C   0  0  0  0  0  0  0  0  0  0  0  0
    3.4747    3.9128    0.0000 O   0  0  0  0  0  0  0  0  0  0  0  0
    6.4625    6.5250    0.0000 O   0  0  0  0  0  0  0  0  0  0  0  0
    5.7064    7.8204    0.0000 C   0  0  1  0  0  0  0  0  0  0  0  0
    6.4503    9.1230    0.0000 C   0  0  1  0  0  0  0  0  0  0  0  0
    5.6942   10.4185    0.0000 C   0  0  2  0  0  0  0  0  0  0  0  0
    4.1942   10.4114    0.0000 C   0  0  1  0  0  0  0  0  0  0  0  0
    3.4503    9.1089    0.0000 C   0  0  2  0  0  0  0  0  0  0  0  0
    4.2064    7.8134    0.0000 O   0  0  0  0  0  0  0  0  0  0  0  0
    1.9503    9.1018    0.0000 C   0  0  0  0  0  0  0  0  0  0  0  0
    1.1942   10.3973    0.0000 O   0  0  0  0  0  0  0  0  0  0  0  0
    3.4381   11.7069    0.0000 O   0  0  0  0  0  0  0  0  0  0  0  0
    6.4380   11.7210    0.0000 O   0  0  0  0  0  0  0  0  0  0  0  0
    7.9502    9.1301    0.0000 O   0  0  0  0  0  0  0  0  0  0  0  0
   -1.0130    1.2936    0.0000 C   0  0  0  0  0  0  0  0  0  0  0  0
   -1.0200    2.7936    0.0000 C   0  0  0  0  0  0  0  0  0  0  0  0
   -1.0059   -0.2064    0.0000 C   0  0  0  0  0  0  0  0  0  0  0  0
   -2.5130    1.2865    0.0000 C   0  0  0  0  0  0  0  0  0  0  0  0
   -3.2569   -0.0160    0.0000 C   0  0  0  0  0  0  0  0  0  0  0  0
    0.6480   -1.0369    0.0000 H   0  0  0  0  0  0  0  0  0  0  0  0
  1  2  2  0  0  0  0
  1  6  1  0  0  0  0
  2  3  1  0  0  0  0
  3  4  2  0  0  0  0
  4  5  1  0  0  0  0
  5  6  2  0  0  0  0
  5 11  1  0  0  0  0
  6  7  1  0  0  0  0
  7  8  2  0  0  0  0
  8  9  1  0  0  0  0
  9 10  2  0  0  0  0
  9 11  1  0  0  0  0
  1 12  1  0  0  0  0
 13 14  1  0  0  0  0
 14 15  2  0  0  0  0
 14 16  1  0  0  0  0
 16 17  1  0  0  0  0
 17 18  1  0  0  0  0
 17 19  1  0  0  0  0
 17 20  1  0  0  0  0
 20 21  1  0  0  0  0
 20 22  1  0  0  0  0
  2 21  1  0  0  0  0
  3 22  1  0  0  0  0
 23 24  1  0  0  0  0
 24 25  1  0  0  0  0
 24 26  1  0  0  0  0
 24 29  1  0  0  0  0
 26 27  1  0  0  0  0
 26 28  1  0  0  0  0
 30 29  1  1  0  0  0
 30 31  1  0  0  0  0
 30 35  1  0  0  0  0
 31 32  1  0  0  0  0
 31 40  1  6  0  0  0
 32 33  1  0  0  0  0
 32 39  1  1  0  0  0
 33 34  1  0  0  0  0
 33 38  1  6  0  0  0
 34 35  1  0  0  0  0
 34 36  1  1  0  0  0
 36 37  1  0  0  0  0
  4 27  1  0  0  0  0
 41 42  1  0  0  0  0
 41 43  1  0  0  0  0
 41 44  1  0  0  0  0
 44 45  2  0  0  0  0
  8 41  1  0  0  0  0
  7 46  1  0  0  0  0
M  END
> <score_Kier2>
0.516507

$$$$
suggested molecule #667
 MOE2019            2D

 34 37  0  0  0  0  0  0  0  0999 V2000
    3.4992   -1.2833    0.0000 C   0  0  0  0  0  0  0  0  0  1  0  0
    4.9992   -1.2762    0.0000 C   0  0  0  0  0  0  0  0  0  2  0  0
    5.7430    0.0263    0.0000 C   0  0  0  0  0  0  0  0  0  3  0  0
    4.9869    1.3218    0.0000 C   0  0  0  0  0  0  0  0  0  4  0  0
    3.4870    1.3147    0.0000 C   0  0  0  0  0  0  0  0  0  5  0  0
    2.7431    0.0122    0.0000 C   0  0  0  0  0  0  0  0  0  6  0  0
    1.2431    0.0051    0.0000 C   0  0  0  0  0  0  0  0  0  7  0  0
    0.4870    1.3006    0.0000 C   0  0  0  0  0  0  0  0  0  8  0  0
    1.2309    2.6032    0.0000 C   0  0  0  0  0  0  0  0  0  9  0  0
    0.4748    3.8987    0.0000 O   0  0  0  0  0  0  0  0  0 10  0  0
    2.7309    2.6102    0.0000 O   0  0  0  0  0  0  0  0  0 11  0  0
    2.9041   -2.3253    0.0000 H   0  0  0  0  0  0  0  0  0  0  0  0
   11.2902   -5.5013    0.0000 C   0  0  0  0  0  0  0  0  0  0  0  0
    9.9877   -4.7574    0.0000 C   0  0  0  0  0  0  0  0  0  0  0  0
    8.6922   -5.5135    0.0000 O   0  0  0  0  0  0  0  0  0  0  0  0
    9.9806   -3.2575    0.0000 O   0  0  0  0  0  0  0  0  0  0  0  0
    8.6781   -2.5136    0.0000 C   0  0  0  0  0  0  0  0  0  0  0  0
    7.9342   -3.8161    0.0000 C   0  0  0  0  0  0  0  0  0  0  0  0
    9.4220   -1.2110    0.0000 C   0  0  0  0  0  0  0  0  0  0  0  0
    7.3755   -1.7697    0.0000 C   0  0  0  0  0  0  0  0  0  0  0  0
    6.0081   -2.3862    0.0000 C   0  0  0  0  0  0  0  0  0  0  0  0
    7.2117   -0.2787    0.0000 O   0  0  0  0  0  0  0  0  0  0  0  0
    9.2824    2.0920    0.0000 C   0  0  0  0  0  0  0  0  0  0  0  0
    8.5263    3.3875    0.0000 C   0  0  0  0  0  0  0  0  0  0  0  0
    9.2702    4.6901    0.0000 C   0  0  0  0  0  0  0  0  0  0  0  0
    7.0263    3.3805    0.0000 C   0  0  0  0  0  0  0  0  0  0  0  0
    5.7308    2.6244    0.0000 C   0  0  0  0  0  0  0  0  0  0  0  0
    5.7238    4.1243    0.0000 O   0  0  0  0  0  0  0  0  0  0  0  0
   -1.0130    1.2936    0.0000 C   0  0  0  0  0  0  0  0  0  0  0  0
   -1.0200    2.7936    0.0000 C   0  0  0  0  0  0  0  0  0  0  0  0
   -1.0059   -0.2064    0.0000 C   0  0  0  0  0  0  0  0  0  0  0  0
   -2.5130    1.2865    0.0000 C   0  0  0  0  0  0  0  0  0  0  0  0
   -3.2569   -0.0160    0.0000 C   0  0  0  0  0  0  0  0  0  0  0  0
    0.6480   -1.0369    0.0000 H   0  0  0  0  0  0  0  0  0  0  0  0
  1  2  1  0  0  0  0
  1  6  2  0  0  0  0
  2  3  2  0  0  0  0
  3  4  1  0  0  0  0
  4  5  2  0  0  0  0
  5  6  1  0  0  0  0
  5 11  1  0  0  0  0
  6  7  1  0  0  0  0
  7  8  2  0  0  0  0
  8  9  1  0  0  0  0
  9 10  2  0  0  0  0
  9 11  1  0  0  0  0
  1 12  1  0  0  0  0
 13 14  1  0  0  0  0
 14 15  2  0  0  0  0
 14 16  1  0  0  0  0
 16 17  1  0  0  0  0
 17 18  1  0  0  0  0
 17 19  1  0  0  0  0
 17 20  1  0  0  0  0
 20 21  1  0  0  0  0
 20 22  1  0  0  0  0
  2 21  1  0  0  0  0
  3 22  1  0  0  0  0
 23 24  1  0  0  0  0
 24 25  2  0  0  0  0
 24 26  1  0  0  0  0
 26 27  1  0  0  0  0
 26 28  1  0  0  0  0
 27 28  1  0  0  0  0
  4 27  1  0  0  0  0
 29 30  1  0  0  0  0
 29 31  1  0  0  0  0
 29 32  1  0  0  0  0
 32 33  2  0  0  0  0
  8 29  1  0  0  0  0
  7 34  1  0  0  0  0
M  END
> <score_Kier1>
0.51779

$$$$
suggested molecule #668
 MOE2019            2D

 34 37  0  0  0  0  0  0  0  0999 V2000
    3.4992   -1.2833    0.0000 C   0  0  0  0  0  0  0  0  0  1  0  0
    4.9992   -1.2762    0.0000 C   0  0  0  0  0  0  0  0  0  2  0  0
    5.7430    0.0263    0.0000 C   0  0  0  0  0  0  0  0  0  3  0  0
    4.9869    1.3218    0.0000 C   0  0  0  0  0  0  0  0  0  4  0  0
    3.4870    1.3147    0.0000 C   0  0  0  0  0  0  0  0  0  5  0  0
    2.7431    0.0122    0.0000 C   0  0  0  0  0  0  0  0  0  6  0  0
    1.2431    0.0051    0.0000 C   0  0  0  0  0  0  0  0  0  7  0  0
    0.4870    1.3006    0.0000 C   0  0  0  0  0  0  0  0  0  8  0  0
    1.2309    2.6032    0.0000 C   0  0  0  0  0  0  0  0  0  9  0  0
    0.4748    3.8987    0.0000 O   0  0  0  0  0  0  0  0  0 10  0  0
    2.7309    2.6102    0.0000 O   0  0  0  0  0  0  0  0  0 11  0  0
    2.9041   -2.3253    0.0000 H   0  0  0  0  0  0  0  0  0  0  0  0
   11.2902   -5.5013    0.0000 C   0  0  0  0  0  0  0  0  0  0  0  0
    9.9877   -4.7574    0.0000 C   0  0  0  0  0  0  0  0  0  0  0  0
    8.6922   -5.5135    0.0000 O   0  0  0  0  0  0  0  0  0  0  0  0
    9.9806   -3.2575    0.0000 O   0  0  0  0  0  0  0  0  0  0  0  0
    8.6781   -2.5136    0.0000 C   0  0  0  0  0  0  0  0  0  0  0  0
    7.9342   -3.8161    0.0000 C   0  0  0  0  0  0  0  0  0  0  0  0
    9.4220   -1.2110    0.0000 C   0  0  0  0  0  0  0  0  0  0  0  0
    7.3755   -1.7697    0.0000 C   0  0  0  0  0  0  0  0  0  0  0  0
    6.0081   -2.3862    0.0000 C   0  0  0  0  0  0  0  0  0  0  0  0
    7.2117   -0.2787    0.0000 O   0  0  0  0  0  0  0  0  0  0  0  0
    9.2824    2.0920    0.0000 C   0  0  0  0  0  0  0  0  0  0  0  0
    8.5263    3.3875    0.0000 C   0  0  0  0  0  0  0  0  0  0  0  0
    9.2702    4.6901    0.0000 C   0  0  0  0  0  0  0  0  0  0  0  0
    7.0263    3.3805    0.0000 C   0  0  0  0  0  0  0  0  0  0  0  0
    5.7308    2.6244    0.0000 C   0  0  0  0  0  0  0  0  0  0  0  0
    5.7238    4.1243    0.0000 O   0  0  0  0  0  0  0  0  0  0  0  0
   -1.0130    1.2936    0.0000 C   0  0  0  0  0  0  0  0  0  0  0  0
   -1.0200    2.7936    0.0000 C   0  0  0  0  0  0  0  0  0  0  0  0
   -1.0059   -0.2064    0.0000 C   0  0  0  0  0  0  0  0  0  0  0  0
   -2.5130    1.2865    0.0000 C   0  0  0  0  0  0  0  0  0  0  0  0
   -3.2569   -0.0160    0.0000 C   0  0  0  0  0  0  0  0  0  0  0  0
    0.6480   -1.0369    0.0000 H   0  0  0  0  0  0  0  0  0  0  0  0
  1  2  1  0  0  0  0
  1  6  2  0  0  0  0
  2  3  2  0  0  0  0
  3  4  1  0  0  0  0
  4  5  2  0  0  0  0
  5  6  1  0  0  0  0
  5 11  1  0  0  0  0
  6  7  1  0  0  0  0
  7  8  2  0  0  0  0
  8  9  1  0  0  0  0
  9 10  2  0  0  0  0
  9 11  1  0  0  0  0
  1 12  1  0  0  0  0
 13 14  1  0  0  0  0
 14 15  2  0  0  0  0
 14 16  1  0  0  0  0
 16 17  1  0  0  0  0
 17 18  1  0  0  0  0
 17 19  1  0  0  0  0
 17 20  1  0  0  0  0
 20 21  1  0  0  0  0
 20 22  1  0  0  0  0
  2 21  1  0  0  0  0
  3 22  1  0  0  0  0
 23 24  1  0  0  0  0
 24 25  2  0  0  0  0
 24 26  1  0  0  0  0
 26 27  1  0  0  0  0
 26 28  1  0  0  0  0
 27 28  1  0  0  0  0
  4 27  1  0  0  0  0
 29 30  1  0  0  0  0
 29 31  1  0  0  0  0
 29 32  1  0  0  0  0
 32 33  2  0  0  0  0
  8 29  1  0  0  0  0
  7 34  1  0  0  0  0
M  END
> <score_Kier2>
0.51656

$$$$
suggested molecule #669
 MOE2019            2D

 34 37  0  0  0  0  0  0  0  0999 V2000
    3.4992   -1.2833    0.0000 C   0  0  0  0  0  0  0  0  0  1  0  0
    4.9992   -1.2762    0.0000 C   0  0  0  0  0  0  0  0  0  2  0  0
    5.7430    0.0263    0.0000 C   0  0  0  0  0  0  0  0  0  3  0  0
    4.9869    1.3218    0.0000 C   0  0  0  0  0  0  0  0  0  4  0  0
    3.4870    1.3147    0.0000 C   0  0  0  0  0  0  0  0  0  5  0  0
    2.7431    0.0122    0.0000 C   0  0  0  0  0  0  0  0  0  6  0  0
    1.2431    0.0051    0.0000 C   0  0  0  0  0  0  0  0  0  7  0  0
    0.4870    1.3006    0.0000 C   0  0  0  0  0  0  0  0  0  8  0  0
    1.2309    2.6032    0.0000 C   0  0  0  0  0  0  0  0  0  9  0  0
    0.4748    3.8987    0.0000 O   0  0  0  0  0  0  0  0  0 10  0  0
    2.7309    2.6102    0.0000 O   0  0  0  0  0  0  0  0  0 11  0  0
    2.9041   -2.3253    0.0000 H   0  0  0  0  0  0  0  0  0  0  0  0
   11.2902   -5.5013    0.0000 C   0  0  0  0  0  0  0  0  0  0  0  0
    9.9877   -4.7574    0.0000 C   0  0  0  0  0  0  0  0  0  0  0  0
    8.6922   -5.5135    0.0000 O   0  0  0  0  0  0  0  0  0  0  0  0
    9.9806   -3.2575    0.0000 O   0  0  0  0  0  0  0  0  0  0  0  0
    8.6781   -2.5136    0.0000 C   0  0  0  0  0  0  0  0  0  0  0  0
    7.9342   -3.8161    0.0000 C   0  0  0  0  0  0  0  0  0  0  0  0
    9.4220   -1.2110    0.0000 C   0  0  0  0  0  0  0  0  0  0  0  0
    7.3755   -1.7697    0.0000 C   0  0  0  0  0  0  0  0  0  0  0  0
    6.0081   -2.3862    0.0000 C   0  0  0  0  0  0  0  0  0  0  0  0
    7.2117   -0.2787    0.0000 O   0  0  0  0  0  0  0  0  0  0  0  0
    9.2824    2.0920    0.0000 C   0  0  0  0  0  0  0  0  0  0  0  0
    8.5263    3.3875    0.0000 C   0  0  0  0  0  0  0  0  0  0  0  0
    9.2702    4.6901    0.0000 C   0  0  0  0  0  0  0  0  0  0  0  0
    7.0263    3.3805    0.0000 C   0  0  0  0  0  0  0  0  0  0  0  0
    5.7308    2.6244    0.0000 C   0  0  0  0  0  0  0  0  0  0  0  0
    5.7238    4.1243    0.0000 O   0  0  0  0  0  0  0  0  0  0  0  0
   -1.0130    1.2936    0.0000 C   0  0  0  0  0  0  0  0  0  0  0  0
   -1.0200    2.7936    0.0000 C   0  0  0  0  0  0  0  0  0  0  0  0
   -1.0059   -0.2064    0.0000 C   0  0  0  0  0  0  0  0  0  0  0  0
   -2.5130    1.2865    0.0000 C   0  0  0  0  0  0  0  0  0  0  0  0
   -3.2569   -0.0160    0.0000 C   0  0  0  0  0  0  0  0  0  0  0  0
    0.6480   -1.0369    0.0000 H   0  0  0  0  0  0  0  0  0  0  0  0
  1  2  1  0  0  0  0
  1  6  2  0  0  0  0
  2  3  2  0  0  0  0
  3  4  1  0  0  0  0
  4  5  2  0  0  0  0
  5  6  1  0  0  0  0
  5 11  1  0  0  0  0
  6  7  1  0  0  0  0
  7  8  2  0  0  0  0
  8  9  1  0  0  0  0
  9 10  2  0  0  0  0
  9 11  1  0  0  0  0
  1 12  1  0  0  0  0
 13 14  1  0  0  0  0
 14 15  2  0  0  0  0
 14 16  1  0  0  0  0
 16 17  1  0  0  0  0
 17 18  1  0  0  0  0
 17 19  1  0  0  0  0
 17 20  1  0  0  0  0
 20 21  1  0  0  0  0
 20 22  1  0  0  0  0
  2 21  1  0  0  0  0
  3 22  1  0  0  0  0
 23 24  1  0  0  0  0
 24 25  2  0  0  0  0
 24 26  1  0  0  0  0
 26 27  1  0  0  0  0
 26 28  1  0  0  0  0
 27 28  1  0  0  0  0
  4 27  1  0  0  0  0
 29 30  1  0  0  0  0
 29 31  1  0  0  0  0
 29 32  1  0  0  0  0
 32 33  2  0  0  0  0
  8 29  1  0  0  0  0
  7 34  1  0  0  0  0
M  END
> <score_KierA1>
0.517643

$$$$
suggested molecule #670
 MOE2019            2D

 34 37  0  0  0  0  0  0  0  0999 V2000
    3.4992   -1.2833    0.0000 C   0  0  0  0  0  0  0  0  0  1  0  0
    4.9992   -1.2762    0.0000 C   0  0  0  0  0  0  0  0  0  2  0  0
    5.7430    0.0263    0.0000 C   0  0  0  0  0  0  0  0  0  3  0  0
    4.9869    1.3218    0.0000 C   0  0  0  0  0  0  0  0  0  4  0  0
    3.4870    1.3147    0.0000 C   0  0  0  0  0  0  0  0  0  5  0  0
    2.7431    0.0122    0.0000 C   0  0  0  0  0  0  0  0  0  6  0  0
    1.2431    0.0051    0.0000 C   0  0  0  0  0  0  0  0  0  7  0  0
    0.4870    1.3006    0.0000 C   0  0  0  0  0  0  0  0  0  8  0  0
    1.2309    2.6032    0.0000 C   0  0  0  0  0  0  0  0  0  9  0  0
    0.4748    3.8987    0.0000 O   0  0  0  0  0  0  0  0  0 10  0  0
    2.7309    2.6102    0.0000 O   0  0  0  0  0  0  0  0  0 11  0  0
    2.9041   -2.3253    0.0000 H   0  0  0  0  0  0  0  0  0  0  0  0
   11.2902   -5.5013    0.0000 C   0  0  0  0  0  0  0  0  0  0  0  0
    9.9877   -4.7574    0.0000 C   0  0  0  0  0  0  0  0  0  0  0  0
    8.6922   -5.5135    0.0000 O   0  0  0  0  0  0  0  0  0  0  0  0
    9.9806   -3.2575    0.0000 O   0  0  0  0  0  0  0  0  0  0  0  0
    8.6781   -2.5136    0.0000 C   0  0  0  0  0  0  0  0  0  0  0  0
    7.9342   -3.8161    0.0000 C   0  0  0  0  0  0  0  0  0  0  0  0
    9.4220   -1.2110    0.0000 C   0  0  0  0  0  0  0  0  0  0  0  0
    7.3755   -1.7697    0.0000 C   0  0  0  0  0  0  0  0  0  0  0  0
    6.0081   -2.3862    0.0000 C   0  0  0  0  0  0  0  0  0  0  0  0
    7.2117   -0.2787    0.0000 O   0  0  0  0  0  0  0  0  0  0  0  0
    9.2824    2.0920    0.0000 C   0  0  0  0  0  0  0  0  0  0  0  0
    8.5263    3.3875    0.0000 C   0  0  0  0  0  0  0  0  0  0  0  0
    9.2702    4.6901    0.0000 C   0  0  0  0  0  0  0  0  0  0  0  0
    7.0263    3.3805    0.0000 C   0  0  0  0  0  0  0  0  0  0  0  0
    5.7308    2.6244    0.0000 C   0  0  0  0  0  0  0  0  0  0  0  0
    5.7238    4.1243    0.0000 O   0  0  0  0  0  0  0  0  0  0  0  0
   -1.0130    1.2936    0.0000 C   0  0  0  0  0  0  0  0  0  0  0  0
   -1.0200    2.7936    0.0000 C   0  0  0  0  0  0  0  0  0  0  0  0
   -1.0059   -0.2064    0.0000 C   0  0  0  0  0  0  0  0  0  0  0  0
   -2.5130    1.2865    0.0000 C   0  0  0  0  0  0  0  0  0  0  0  0
   -3.2569   -0.0160    0.0000 C   0  0  0  0  0  0  0  0  0  0  0  0
    0.6480   -1.0369    0.0000 H   0  0  0  0  0  0  0  0  0  0  0  0
  1  2  1  0  0  0  0
  1  6  2  0  0  0  0
  2  3  2  0  0  0  0
  3  4  1  0  0  0  0
  4  5  2  0  0  0  0
  5  6  1  0  0  0  0
  5 11  1  0  0  0  0
  6  7  1  0  0  0  0
  7  8  2  0  0  0  0
  8  9  1  0  0  0  0
  9 10  2  0  0  0  0
  9 11  1  0  0  0  0
  1 12  1  0  0  0  0
 13 14  1  0  0  0  0
 14 15  2  0  0  0  0
 14 16  1  0  0  0  0
 16 17  1  0  0  0  0
 17 18  1  0  0  0  0
 17 19  1  0  0  0  0
 17 20  1  0  0  0  0
 20 21  1  0  0  0  0
 20 22  1  0  0  0  0
  2 21  1  0  0  0  0
  3 22  1  0  0  0  0
 23 24  1  0  0  0  0
 24 25  2  0  0  0  0
 24 26  1  0  0  0  0
 26 27  1  0  0  0  0
 26 28  1  0  0  0  0
 27 28  1  0  0  0  0
  4 27  1  0  0  0  0
 29 30  1  0  0  0  0
 29 31  1  0  0  0  0
 29 32  1  0  0  0  0
 32 33  2  0  0  0  0
  8 29  1  0  0  0  0
  7 34  1  0  0  0  0
M  END
> <score_KierA2>
0.516775

$$$$
suggested molecule #671
 MOE2019            2D

 35 38  0  0  0  0  0  0  0  0999 V2000
    3.4992   -1.2833    0.0000 C   0  0  0  0  0  0  0  0  0  1  0  0
    4.9992   -1.2762    0.0000 C   0  0  0  0  0  0  0  0  0  2  0  0
    5.7430    0.0263    0.0000 C   0  0  0  0  0  0  0  0  0  3  0  0
    4.9869    1.3218    0.0000 C   0  0  0  0  0  0  0  0  0  4  0  0
    3.4870    1.3147    0.0000 C   0  0  0  0  0  0  0  0  0  5  0  0
    2.7431    0.0122    0.0000 C   0  0  0  0  0  0  0  0  0  6  0  0
    1.2431    0.0051    0.0000 C   0  0  0  0  0  0  0  0  0  7  0  0
    0.4870    1.3006    0.0000 C   0  0  0  0  0  0  0  0  0  8  0  0
    1.2309    2.6032    0.0000 C   0  0  0  0  0  0  0  0  0  9  0  0
    0.4748    3.8987    0.0000 O   0  0  0  0  0  0  0  0  0 10  0  0
    2.7309    2.6102    0.0000 O   0  0  0  0  0  0  0  0  0 11  0  0
    2.9041   -2.3253    0.0000 H   0  0  0  0  0  0  0  0  0  0  0  0
   11.2902   -5.5013    0.0000 C   0  0  0  0  0  0  0  0  0  0  0  0
    9.9877   -4.7574    0.0000 C   0  0  0  0  0  0  0  0  0  0  0  0
    8.6922   -5.5135    0.0000 O   0  0  0  0  0  0  0  0  0  0  0  0
    9.9806   -3.2575    0.0000 O   0  0  0  0  0  0  0  0  0  0  0  0
    8.6781   -2.5136    0.0000 C   0  0  0  0  0  0  0  0  0  0  0  0
    7.9342   -3.8161    0.0000 C   0  0  0  0  0  0  0  0  0  0  0  0
    9.4220   -1.2110    0.0000 C   0  0  0  0  0  0  0  0  0  0  0  0
    7.3755   -1.7697    0.0000 C   0  0  0  0  0  0  0  0  0  0  0  0
    6.0081   -2.3862    0.0000 C   0  0  0  0  0  0  0  0  0  0  0  0
    7.2117   -0.2787    0.0000 O   0  0  0  0  0  0  0  0  0  0  0  0
    3.6456    4.2968    0.0000 C   0  0  0  0  0  0  0  0  0  0  0  0
    5.1143    3.9918    0.0000 C   0  0  0  0  0  0  0  0  0  0  0  0
    5.7308    2.6244    0.0000 C   0  0  0  0  0  0  0  0  0  0  0  0
    7.2218    2.7882    0.0000 C   0  0  0  0  0  0  0  0  0  0  0  0
    8.2308    1.6782    0.0000 O   0  0  0  0  0  0  0  0  0  0  0  0
    7.5268    4.2568    0.0000 O   0  0  0  0  0  0  0  0  0  0  0  0
    6.2243    5.0007    0.0000 C   0  0  0  0  0  0  0  0  0  0  0  0
   -1.0130    1.2936    0.0000 C   0  0  0  0  0  0  0  0  0  0  0  0
   -1.0059   -0.2064    0.0000 C   0  0  0  0  0  0  0  0  0  0  0  0
   -1.0200    2.7936    0.0000 C   0  0  0  0  0  0  0  0  0  0  0  0
   -2.5130    1.2865    0.0000 C   0  0  0  0  0  0  0  0  0  0  0  0
   -3.2569   -0.0160    0.0000 C   0  0  0  0  0  0  0  0  0  0  0  0
    0.6480   -1.0369    0.0000 H   0  0  0  0  0  0  0  0  0  0  0  0
  1  2  1  0  0  0  0
  1  6  2  0  0  0  0
  2  3  2  0  0  0  0
  3  4  1  0  0  0  0
  4  5  2  0  0  0  0
  5  6  1  0  0  0  0
  5 11  1  0  0  0  0
  6  7  1  0  0  0  0
  7  8  2  0  0  0  0
  8  9  1  0  0  0  0
  9 10  2  0  0  0  0
  9 11  1  0  0  0  0
  1 12  1  0  0  0  0
 13 14  1  0  0  0  0
 14 15  2  0  0  0  0
 14 16  1  0  0  0  0
 16 17  1  0  0  0  0
 17 18  1  0  0  0  0
 17 19  1  0  0  0  0
 17 20  1  0  0  0  0
 20 21  1  0  0  0  0
 20 22  1  0  0  0  0
  2 21  1  0  0  0  0
  3 22  1  0  0  0  0
 23 24  1  0  0  0  0
 24 25  2  0  0  0  0
 24 29  1  0  0  0  0
 25 26  1  0  0  0  0
 26 27  2  0  0  0  0
 26 28  1  0  0  0  0
 28 29  1  0  0  0  0
  4 25  1  0  0  0  0
 30 31  1  0  0  0  0
 30 32  1  0  0  0  0
 30 33  1  0  0  0  0
 33 34  2  0  0  0  0
  8 30  1  0  0  0  0
  7 35  1  0  0  0  0
M  END
> <score_Kier1>
0.517782

$$$$
suggested molecule #672
 MOE2019            2D

 35 38  0  0  0  0  0  0  0  0999 V2000
    3.4992   -1.2833    0.0000 C   0  0  0  0  0  0  0  0  0  1  0  0
    4.9992   -1.2762    0.0000 C   0  0  0  0  0  0  0  0  0  2  0  0
    5.7430    0.0263    0.0000 C   0  0  0  0  0  0  0  0  0  3  0  0
    4.9869    1.3218    0.0000 C   0  0  0  0  0  0  0  0  0  4  0  0
    3.4870    1.3147    0.0000 C   0  0  0  0  0  0  0  0  0  5  0  0
    2.7431    0.0122    0.0000 C   0  0  0  0  0  0  0  0  0  6  0  0
    1.2431    0.0051    0.0000 C   0  0  0  0  0  0  0  0  0  7  0  0
    0.4870    1.3006    0.0000 C   0  0  0  0  0  0  0  0  0  8  0  0
    1.2309    2.6032    0.0000 C   0  0  0  0  0  0  0  0  0  9  0  0
    0.4748    3.8987    0.0000 O   0  0  0  0  0  0  0  0  0 10  0  0
    2.7309    2.6102    0.0000 O   0  0  0  0  0  0  0  0  0 11  0  0
    2.9041   -2.3253    0.0000 H   0  0  0  0  0  0  0  0  0  0  0  0
   11.2902   -5.5013    0.0000 C   0  0  0  0  0  0  0  0  0  0  0  0
    9.9877   -4.7574    0.0000 C   0  0  0  0  0  0  0  0  0  0  0  0
    8.6922   -5.5135    0.0000 O   0  0  0  0  0  0  0  0  0  0  0  0
    9.9806   -3.2575    0.0000 O   0  0  0  0  0  0  0  0  0  0  0  0
    8.6781   -2.5136    0.0000 C   0  0  0  0  0  0  0  0  0  0  0  0
    7.9342   -3.8161    0.0000 C   0  0  0  0  0  0  0  0  0  0  0  0
    9.4220   -1.2110    0.0000 C   0  0  0  0  0  0  0  0  0  0  0  0
    7.3755   -1.7697    0.0000 C   0  0  0  0  0  0  0  0  0  0  0  0
    6.0081   -2.3862    0.0000 C   0  0  0  0  0  0  0  0  0  0  0  0
    7.2117   -0.2787    0.0000 O   0  0  0  0  0  0  0  0  0  0  0  0
    3.6456    4.2968    0.0000 C   0  0  0  0  0  0  0  0  0  0  0  0
    5.1143    3.9918    0.0000 C   0  0  0  0  0  0  0  0  0  0  0  0
    5.7308    2.6244    0.0000 C   0  0  0  0  0  0  0  0  0  0  0  0
    7.2218    2.7882    0.0000 C   0  0  0  0  0  0  0  0  0  0  0  0
    8.2308    1.6782    0.0000 O   0  0  0  0  0  0  0  0  0  0  0  0
    7.5268    4.2568    0.0000 O   0  0  0  0  0  0  0  0  0  0  0  0
    6.2243    5.0007    0.0000 C   0  0  0  0  0  0  0  0  0  0  0  0
   -1.0130    1.2936    0.0000 C   0  0  0  0  0  0  0  0  0  0  0  0
   -1.0059   -0.2064    0.0000 C   0  0  0  0  0  0  0  0  0  0  0  0
   -1.0200    2.7936    0.0000 C   0  0  0  0  0  0  0  0  0  0  0  0
   -2.5130    1.2865    0.0000 C   0  0  0  0  0  0  0  0  0  0  0  0
   -3.2569   -0.0160    0.0000 C   0  0  0  0  0  0  0  0  0  0  0  0
    0.6480   -1.0369    0.0000 H   0  0  0  0  0  0  0  0  0  0  0  0
  1  2  1  0  0  0  0
  1  6  2  0  0  0  0
  2  3  2  0  0  0  0
  3  4  1  0  0  0  0
  4  5  2  0  0  0  0
  5  6  1  0  0  0  0
  5 11  1  0  0  0  0
  6  7  1  0  0  0  0
  7  8  2  0  0  0  0
  8  9  1  0  0  0  0
  9 10  2  0  0  0  0
  9 11  1  0  0  0  0
  1 12  1  0  0  0  0
 13 14  1  0  0  0  0
 14 15  2  0  0  0  0
 14 16  1  0  0  0  0
 16 17  1  0  0  0  0
 17 18  1  0  0  0  0
 17 19  1  0  0  0  0
 17 20  1  0  0  0  0
 20 21  1  0  0  0  0
 20 22  1  0  0  0  0
  2 21  1  0  0  0  0
  3 22  1  0  0  0  0
 23 24  1  0  0  0  0
 24 25  2  0  0  0  0
 24 29  1  0  0  0  0
 25 26  1  0  0  0  0
 26 27  2  0  0  0  0
 26 28  1  0  0  0  0
 28 29  1  0  0  0  0
  4 25  1  0  0  0  0
 30 31  1  0  0  0  0
 30 32  1  0  0  0  0
 30 33  1  0  0  0  0
 33 34  2  0  0  0  0
  8 30  1  0  0  0  0
  7 35  1  0  0  0  0
M  END
> <score_Kier2>
0.516547

$$$$
suggested molecule #673
 MOE2019            2D

 35 38  0  0  0  0  0  0  0  0999 V2000
    3.4992   -1.2833    0.0000 C   0  0  0  0  0  0  0  0  0  1  0  0
    4.9992   -1.2762    0.0000 C   0  0  0  0  0  0  0  0  0  2  0  0
    5.7430    0.0263    0.0000 C   0  0  0  0  0  0  0  0  0  3  0  0
    4.9869    1.3218    0.0000 C   0  0  0  0  0  0  0  0  0  4  0  0
    3.4870    1.3147    0.0000 C   0  0  0  0  0  0  0  0  0  5  0  0
    2.7431    0.0122    0.0000 C   0  0  0  0  0  0  0  0  0  6  0  0
    1.2431    0.0051    0.0000 C   0  0  0  0  0  0  0  0  0  7  0  0
    0.4870    1.3006    0.0000 C   0  0  0  0  0  0  0  0  0  8  0  0
    1.2309    2.6032    0.0000 C   0  0  0  0  0  0  0  0  0  9  0  0
    0.4748    3.8987    0.0000 O   0  0  0  0  0  0  0  0  0 10  0  0
    2.7309    2.6102    0.0000 O   0  0  0  0  0  0  0  0  0 11  0  0
    2.9041   -2.3253    0.0000 H   0  0  0  0  0  0  0  0  0  0  0  0
   11.2902   -5.5013    0.0000 C   0  0  0  0  0  0  0  0  0  0  0  0
    9.9877   -4.7574    0.0000 C   0  0  0  0  0  0  0  0  0  0  0  0
    8.6922   -5.5135    0.0000 O   0  0  0  0  0  0  0  0  0  0  0  0
    9.9806   -3.2575    0.0000 O   0  0  0  0  0  0  0  0  0  0  0  0
    8.6781   -2.5136    0.0000 C   0  0  0  0  0  0  0  0  0  0  0  0
    7.9342   -3.8161    0.0000 C   0  0  0  0  0  0  0  0  0  0  0  0
    9.4220   -1.2110    0.0000 C   0  0  0  0  0  0  0  0  0  0  0  0
    7.3755   -1.7697    0.0000 C   0  0  0  0  0  0  0  0  0  0  0  0
    6.0081   -2.3862    0.0000 C   0  0  0  0  0  0  0  0  0  0  0  0
    7.2117   -0.2787    0.0000 O   0  0  0  0  0  0  0  0  0  0  0  0
    3.6456    4.2968    0.0000 C   0  0  0  0  0  0  0  0  0  0  0  0
    5.1143    3.9918    0.0000 C   0  0  0  0  0  0  0  0  0  0  0  0
    5.7308    2.6244    0.0000 C   0  0  0  0  0  0  0  0  0  0  0  0
    7.2218    2.7882    0.0000 C   0  0  0  0  0  0  0  0  0  0  0  0
    8.2308    1.6782    0.0000 O   0  0  0  0  0  0  0  0  0  0  0  0
    7.5268    4.2568    0.0000 O   0  0  0  0  0  0  0  0  0  0  0  0
    6.2243    5.0007    0.0000 C   0  0  0  0  0  0  0  0  0  0  0  0
   -1.0130    1.2936    0.0000 C   0  0  0  0  0  0  0  0  0  0  0  0
   -1.0059   -0.2064    0.0000 C   0  0  0  0  0  0  0  0  0  0  0  0
   -1.0200    2.7936    0.0000 C   0  0  0  0  0  0  0  0  0  0  0  0
   -2.5130    1.2865    0.0000 C   0  0  0  0  0  0  0  0  0  0  0  0
   -3.2569   -0.0160    0.0000 C   0  0  0  0  0  0  0  0  0  0  0  0
    0.6480   -1.0369    0.0000 H   0  0  0  0  0  0  0  0  0  0  0  0
  1  2  1  0  0  0  0
  1  6  2  0  0  0  0
  2  3  2  0  0  0  0
  3  4  1  0  0  0  0
  4  5  2  0  0  0  0
  5  6  1  0  0  0  0
  5 11  1  0  0  0  0
  6  7  1  0  0  0  0
  7  8  2  0  0  0  0
  8  9  1  0  0  0  0
  9 10  2  0  0  0  0
  9 11  1  0  0  0  0
  1 12  1  0  0  0  0
 13 14  1  0  0  0  0
 14 15  2  0  0  0  0
 14 16  1  0  0  0  0
 16 17  1  0  0  0  0
 17 18  1  0  0  0  0
 17 19  1  0  0  0  0
 17 20  1  0  0  0  0
 20 21  1  0  0  0  0
 20 22  1  0  0  0  0
  2 21  1  0  0  0  0
  3 22  1  0  0  0  0
 23 24  1  0  0  0  0
 24 25  2  0  0  0  0
 24 29  1  0  0  0  0
 25 26  1  0  0  0  0
 26 27  2  0  0  0  0
 26 28  1  0  0  0  0
 28 29  1  0  0  0  0
  4 25  1  0  0  0  0
 30 31  1  0  0  0  0
 30 32  1  0  0  0  0
 30 33  1  0  0  0  0
 33 34  2  0  0  0  0
  8 30  1  0  0  0  0
  7 35  1  0  0  0  0
M  END
> <score_KierA1>
0.51764

$$$$
suggested molecule #674
 MOE2019            2D

 35 38  0  0  0  0  0  0  0  0999 V2000
    3.4992   -1.2833    0.0000 C   0  0  0  0  0  0  0  0  0  1  0  0
    4.9992   -1.2762    0.0000 C   0  0  0  0  0  0  0  0  0  2  0  0
    5.7430    0.0263    0.0000 C   0  0  0  0  0  0  0  0  0  3  0  0
    4.9869    1.3218    0.0000 C   0  0  0  0  0  0  0  0  0  4  0  0
    3.4870    1.3147    0.0000 C   0  0  0  0  0  0  0  0  0  5  0  0
    2.7431    0.0122    0.0000 C   0  0  0  0  0  0  0  0  0  6  0  0
    1.2431    0.0051    0.0000 C   0  0  0  0  0  0  0  0  0  7  0  0
    0.4870    1.3006    0.0000 C   0  0  0  0  0  0  0  0  0  8  0  0
    1.2309    2.6032    0.0000 C   0  0  0  0  0  0  0  0  0  9  0  0
    0.4748    3.8987    0.0000 O   0  0  0  0  0  0  0  0  0 10  0  0
    2.7309    2.6102    0.0000 O   0  0  0  0  0  0  0  0  0 11  0  0
    2.9041   -2.3253    0.0000 H   0  0  0  0  0  0  0  0  0  0  0  0
   11.2902   -5.5013    0.0000 C   0  0  0  0  0  0  0  0  0  0  0  0
    9.9877   -4.7574    0.0000 C   0  0  0  0  0  0  0  0  0  0  0  0
    8.6922   -5.5135    0.0000 O   0  0  0  0  0  0  0  0  0  0  0  0
    9.9806   -3.2575    0.0000 O   0  0  0  0  0  0  0  0  0  0  0  0
    8.6781   -2.5136    0.0000 C   0  0  0  0  0  0  0  0  0  0  0  0
    7.9342   -3.8161    0.0000 C   0  0  0  0  0  0  0  0  0  0  0  0
    9.4220   -1.2110    0.0000 C   0  0  0  0  0  0  0  0  0  0  0  0
    7.3755   -1.7697    0.0000 C   0  0  0  0  0  0  0  0  0  0  0  0
    6.0081   -2.3862    0.0000 C   0  0  0  0  0  0  0  0  0  0  0  0
    7.2117   -0.2787    0.0000 O   0  0  0  0  0  0  0  0  0  0  0  0
    3.6456    4.2968    0.0000 C   0  0  0  0  0  0  0  0  0  0  0  0
    5.1143    3.9918    0.0000 C   0  0  0  0  0  0  0  0  0  0  0  0
    5.7308    2.6244    0.0000 C   0  0  0  0  0  0  0  0  0  0  0  0
    7.2218    2.7882    0.0000 C   0  0  0  0  0  0  0  0  0  0  0  0
    8.2308    1.6782    0.0000 O   0  0  0  0  0  0  0  0  0  0  0  0
    7.5268    4.2568    0.0000 O   0  0  0  0  0  0  0  0  0  0  0  0
    6.2243    5.0007    0.0000 C   0  0  0  0  0  0  0  0  0  0  0  0
   -1.0130    1.2936    0.0000 C   0  0  0  0  0  0  0  0  0  0  0  0
   -1.0059   -0.2064    0.0000 C   0  0  0  0  0  0  0  0  0  0  0  0
   -1.0200    2.7936    0.0000 C   0  0  0  0  0  0  0  0  0  0  0  0
   -2.5130    1.2865    0.0000 C   0  0  0  0  0  0  0  0  0  0  0  0
   -3.2569   -0.0160    0.0000 C   0  0  0  0  0  0  0  0  0  0  0  0
    0.6480   -1.0369    0.0000 H   0  0  0  0  0  0  0  0  0  0  0  0
  1  2  1  0  0  0  0
  1  6  2  0  0  0  0
  2  3  2  0  0  0  0
  3  4  1  0  0  0  0
  4  5  2  0  0  0  0
  5  6  1  0  0  0  0
  5 11  1  0  0  0  0
  6  7  1  0  0  0  0
  7  8  2  0  0  0  0
  8  9  1  0  0  0  0
  9 10  2  0  0  0  0
  9 11  1  0  0  0  0
  1 12  1  0  0  0  0
 13 14  1  0  0  0  0
 14 15  2  0  0  0  0
 14 16  1  0  0  0  0
 16 17  1  0  0  0  0
 17 18  1  0  0  0  0
 17 19  1  0  0  0  0
 17 20  1  0  0  0  0
 20 21  1  0  0  0  0
 20 22  1  0  0  0  0
  2 21  1  0  0  0  0
  3 22  1  0  0  0  0
 23 24  1  0  0  0  0
 24 25  2  0  0  0  0
 24 29  1  0  0  0  0
 25 26  1  0  0  0  0
 26 27  2  0  0  0  0
 26 28  1  0  0  0  0
 28 29  1  0  0  0  0
  4 25  1  0  0  0  0
 30 31  1  0  0  0  0
 30 32  1  0  0  0  0
 30 33  1  0  0  0  0
 33 34  2  0  0  0  0
  8 30  1  0  0  0  0
  7 35  1  0  0  0  0
M  END
> <score_KierA2>
0.516767

$$$$
suggested molecule #675
 MOE2019            2D

 35 37  0  0  0  0  0  0  0  0999 V2000
    3.4992   -1.2833    0.0000 C   0  0  0  0  0  0  0  0  0  1  0  0
    4.9992   -1.2762    0.0000 C   0  0  0  0  0  0  0  0  0  2  0  0
    5.7430    0.0263    0.0000 C   0  0  0  0  0  0  0  0  0  3  0  0
    4.9869    1.3218    0.0000 C   0  0  0  0  0  0  0  0  0  4  0  0
    3.4870    1.3147    0.0000 C   0  0  0  0  0  0  0  0  0  5  0  0
    2.7431    0.0122    0.0000 C   0  0  0  0  0  0  0  0  0  6  0  0
    1.2431    0.0051    0.0000 C   0  0  0  0  0  0  0  0  0  7  0  0
    0.4870    1.3006    0.0000 C   0  0  0  0  0  0  0  0  0  8  0  0
    1.2309    2.6032    0.0000 C   0  0  0  0  0  0  0  0  0  9  0  0
    0.4748    3.8987    0.0000 O   0  0  0  0  0  0  0  0  0 10  0  0
    2.7309    2.6102    0.0000 O   0  0  0  0  0  0  0  0  0 11  0  0
    2.9041   -2.3253    0.0000 H   0  0  0  0  0  0  0  0  0  0  0  0
   11.2902   -5.5013    0.0000 C   0  0  0  0  0  0  0  0  0  0  0  0
    9.9877   -4.7574    0.0000 C   0  0  0  0  0  0  0  0  0  0  0  0
    8.6922   -5.5135    0.0000 O   0  0  0  0  0  0  0  0  0  0  0  0
    9.9806   -3.2575    0.0000 O   0  0  0  0  0  0  0  0  0  0  0  0
    8.6781   -2.5136    0.0000 C   0  0  0  0  0  0  0  0  0  0  0  0
    9.4220   -1.2110    0.0000 C   0  0  0  0  0  0  0  0  0  0  0  0
    7.9342   -3.8161    0.0000 C   0  0  0  0  0  0  0  0  0  0  0  0
    7.3755   -1.7697    0.0000 C   0  0  0  0  0  0  0  0  0  0  0  0
    6.0081   -2.3862    0.0000 C   0  0  0  0  0  0  0  0  0  0  0  0
    7.2117   -0.2787    0.0000 O   0  0  0  0  0  0  0  0  0  0  0  0
    8.7186    5.2365    0.0000 C   0  0  0  0  0  0  0  0  0  0  0  0
    7.9747    3.9340    0.0000 C   0  0  0  0  0  0  0  0  0  0  0  0
    6.6721    4.6778    0.0000 C   0  0  0  0  0  0  0  0  0  0  0  0
    7.2308    2.6314    0.0000 C   0  0  0  0  0  0  0  0  0  0  0  0
    5.7308    2.6244    0.0000 C   0  0  0  0  0  0  0  0  0  0  0  0
    7.9869    1.3359    0.0000 O   0  0  0  0  0  0  0  0  0  0  0  0
    9.2772    3.1901    0.0000 O   0  0  0  0  0  0  0  0  0  0  0  0
   -1.0130    1.2936    0.0000 C   0  0  0  0  0  0  0  0  0  0  0  0
   -1.0200    2.7936    0.0000 C   0  0  0  0  0  0  0  0  0  0  0  0
   -1.0059   -0.2064    0.0000 C   0  0  0  0  0  0  0  0  0  0  0  0
   -2.5130    1.2865    0.0000 C   0  0  0  0  0  0  0  0  0  0  0  0
   -3.2569   -0.0160    0.0000 C   0  0  0  0  0  0  0  0  0  0  0  0
    0.6480   -1.0369    0.0000 H   0  0  0  0  0  0  0  0  0  0  0  0
  1  2  1  0  0  0  0
  1  6  2  0  0  0  0
  2  3  2  0  0  0  0
  3  4  1  0  0  0  0
  4  5  2  0  0  0  0
  5  6  1  0  0  0  0
  5 11  1  0  0  0  0
  6  7  1  0  0  0  0
  7  8  2  0  0  0  0
  8  9  1  0  0  0  0
  9 10  2  0  0  0  0
  9 11  1  0  0  0  0
  1 12  1  0  0  0  0
 13 14  1  0  0  0  0
 14 15  2  0  0  0  0
 14 16  1  0  0  0  0
 16 17  1  0  0  0  0
 17 18  1  0  0  0  0
 17 19  1  0  0  0  0
 17 20  1  0  0  0  0
 20 21  1  0  0  0  0
 20 22  1  0  0  0  0
  2 21  1  0  0  0  0
  3 22  1  0  0  0  0
 23 24  1  0  0  0  0
 24 25  1  0  0  0  0
 24 26  1  0  0  0  0
 24 29  1  0  0  0  0
 26 27  1  0  0  0  0
 26 28  1  0  0  0  0
  4 27  1  0  0  0  0
 30 31  1  0  0  0  0
 30 32  1  0  0  0  0
 30 33  1  0  0  0  0
 33 34  2  0  0  0  0
  8 30  1  0  0  0  0
  7 35  1  0  0  0  0
M  END
> <score_Kier1>
0.51777

$$$$
suggested molecule #676
 MOE2019            2D

 35 37  0  0  0  0  0  0  0  0999 V2000
    3.4992   -1.2833    0.0000 C   0  0  0  0  0  0  0  0  0  1  0  0
    4.9992   -1.2762    0.0000 C   0  0  0  0  0  0  0  0  0  2  0  0
    5.7430    0.0263    0.0000 C   0  0  0  0  0  0  0  0  0  3  0  0
    4.9869    1.3218    0.0000 C   0  0  0  0  0  0  0  0  0  4  0  0
    3.4870    1.3147    0.0000 C   0  0  0  0  0  0  0  0  0  5  0  0
    2.7431    0.0122    0.0000 C   0  0  0  0  0  0  0  0  0  6  0  0
    1.2431    0.0051    0.0000 C   0  0  0  0  0  0  0  0  0  7  0  0
    0.4870    1.3006    0.0000 C   0  0  0  0  0  0  0  0  0  8  0  0
    1.2309    2.6032    0.0000 C   0  0  0  0  0  0  0  0  0  9  0  0
    0.4748    3.8987    0.0000 O   0  0  0  0  0  0  0  0  0 10  0  0
    2.7309    2.6102    0.0000 O   0  0  0  0  0  0  0  0  0 11  0  0
    2.9041   -2.3253    0.0000 H   0  0  0  0  0  0  0  0  0  0  0  0
   11.2902   -5.5013    0.0000 C   0  0  0  0  0  0  0  0  0  0  0  0
    9.9877   -4.7574    0.0000 C   0  0  0  0  0  0  0  0  0  0  0  0
    8.6922   -5.5135    0.0000 O   0  0  0  0  0  0  0  0  0  0  0  0
    9.9806   -3.2575    0.0000 O   0  0  0  0  0  0  0  0  0  0  0  0
    8.6781   -2.5136    0.0000 C   0  0  0  0  0  0  0  0  0  0  0  0
    9.4220   -1.2110    0.0000 C   0  0  0  0  0  0  0  0  0  0  0  0
    7.9342   -3.8161    0.0000 C   0  0  0  0  0  0  0  0  0  0  0  0
    7.3755   -1.7697    0.0000 C   0  0  0  0  0  0  0  0  0  0  0  0
    6.0081   -2.3862    0.0000 C   0  0  0  0  0  0  0  0  0  0  0  0
    7.2117   -0.2787    0.0000 O   0  0  0  0  0  0  0  0  0  0  0  0
    8.7186    5.2365    0.0000 C   0  0  0  0  0  0  0  0  0  0  0  0
    7.9747    3.9340    0.0000 C   0  0  0  0  0  0  0  0  0  0  0  0
    6.6721    4.6778    0.0000 C   0  0  0  0  0  0  0  0  0  0  0  0
    7.2308    2.6314    0.0000 C   0  0  0  0  0  0  0  0  0  0  0  0
    5.7308    2.6244    0.0000 C   0  0  0  0  0  0  0  0  0  0  0  0
    7.9869    1.3359    0.0000 O   0  0  0  0  0  0  0  0  0  0  0  0
    9.2772    3.1901    0.0000 O   0  0  0  0  0  0  0  0  0  0  0  0
   -1.0130    1.2936    0.0000 C   0  0  0  0  0  0  0  0  0  0  0  0
   -1.0200    2.7936    0.0000 C   0  0  0  0  0  0  0  0  0  0  0  0
   -1.0059   -0.2064    0.0000 C   0  0  0  0  0  0  0  0  0  0  0  0
   -2.5130    1.2865    0.0000 C   0  0  0  0  0  0  0  0  0  0  0  0
   -3.2569   -0.0160    0.0000 C   0  0  0  0  0  0  0  0  0  0  0  0
    0.6480   -1.0369    0.0000 H   0  0  0  0  0  0  0  0  0  0  0  0
  1  2  1  0  0  0  0
  1  6  2  0  0  0  0
  2  3  2  0  0  0  0
  3  4  1  0  0  0  0
  4  5  2  0  0  0  0
  5  6  1  0  0  0  0
  5 11  1  0  0  0  0
  6  7  1  0  0  0  0
  7  8  2  0  0  0  0
  8  9  1  0  0  0  0
  9 10  2  0  0  0  0
  9 11  1  0  0  0  0
  1 12  1  0  0  0  0
 13 14  1  0  0  0  0
 14 15  2  0  0  0  0
 14 16  1  0  0  0  0
 16 17  1  0  0  0  0
 17 18  1  0  0  0  0
 17 19  1  0  0  0  0
 17 20  1  0  0  0  0
 20 21  1  0  0  0  0
 20 22  1  0  0  0  0
  2 21  1  0  0  0  0
  3 22  1  0  0  0  0
 23 24  1  0  0  0  0
 24 25  1  0  0  0  0
 24 26  1  0  0  0  0
 24 29  1  0  0  0  0
 26 27  1  0  0  0  0
 26 28  1  0  0  0  0
  4 27  1  0  0  0  0
 30 31  1  0  0  0  0
 30 32  1  0  0  0  0
 30 33  1  0  0  0  0
 33 34  2  0  0  0  0
  8 30  1  0  0  0  0
  7 35  1  0  0  0  0
M  END
> <score_Kier2>
0.51654

$$$$
suggested molecule #677
 MOE2019            2D

 35 37  0  0  0  0  0  0  0  0999 V2000
    3.4992   -1.2833    0.0000 C   0  0  0  0  0  0  0  0  0  1  0  0
    4.9992   -1.2762    0.0000 C   0  0  0  0  0  0  0  0  0  2  0  0
    5.7430    0.0263    0.0000 C   0  0  0  0  0  0  0  0  0  3  0  0
    4.9869    1.3218    0.0000 C   0  0  0  0  0  0  0  0  0  4  0  0
    3.4870    1.3147    0.0000 C   0  0  0  0  0  0  0  0  0  5  0  0
    2.7431    0.0122    0.0000 C   0  0  0  0  0  0  0  0  0  6  0  0
    1.2431    0.0051    0.0000 C   0  0  0  0  0  0  0  0  0  7  0  0
    0.4870    1.3006    0.0000 C   0  0  0  0  0  0  0  0  0  8  0  0
    1.2309    2.6032    0.0000 C   0  0  0  0  0  0  0  0  0  9  0  0
    0.4748    3.8987    0.0000 O   0  0  0  0  0  0  0  0  0 10  0  0
    2.7309    2.6102    0.0000 O   0  0  0  0  0  0  0  0  0 11  0  0
    2.9041   -2.3253    0.0000 H   0  0  0  0  0  0  0  0  0  0  0  0
   11.2902   -5.5013    0.0000 C   0  0  0  0  0  0  0  0  0  0  0  0
    9.9877   -4.7574    0.0000 C   0  0  0  0  0  0  0  0  0  0  0  0
    8.6922   -5.5135    0.0000 O   0  0  0  0  0  0  0  0  0  0  0  0
    9.9806   -3.2575    0.0000 O   0  0  0  0  0  0  0  0  0  0  0  0
    8.6781   -2.5136    0.0000 C   0  0  0  0  0  0  0  0  0  0  0  0
    9.4220   -1.2110    0.0000 C   0  0  0  0  0  0  0  0  0  0  0  0
    7.9342   -3.8161    0.0000 C   0  0  0  0  0  0  0  0  0  0  0  0
    7.3755   -1.7697    0.0000 C   0  0  0  0  0  0  0  0  0  0  0  0
    6.0081   -2.3862    0.0000 C   0  0  0  0  0  0  0  0  0  0  0  0
    7.2117   -0.2787    0.0000 O   0  0  0  0  0  0  0  0  0  0  0  0
    8.7186    5.2365    0.0000 C   0  0  0  0  0  0  0  0  0  0  0  0
    7.9747    3.9340    0.0000 C   0  0  0  0  0  0  0  0  0  0  0  0
    6.6721    4.6778    0.0000 C   0  0  0  0  0  0  0  0  0  0  0  0
    7.2308    2.6314    0.0000 C   0  0  0  0  0  0  0  0  0  0  0  0
    5.7308    2.6244    0.0000 C   0  0  0  0  0  0  0  0  0  0  0  0
    7.9869    1.3359    0.0000 O   0  0  0  0  0  0  0  0  0  0  0  0
    9.2772    3.1901    0.0000 O   0  0  0  0  0  0  0  0  0  0  0  0
   -1.0130    1.2936    0.0000 C   0  0  0  0  0  0  0  0  0  0  0  0
   -1.0200    2.7936    0.0000 C   0  0  0  0  0  0  0  0  0  0  0  0
   -1.0059   -0.2064    0.0000 C   0  0  0  0  0  0  0  0  0  0  0  0
   -2.5130    1.2865    0.0000 C   0  0  0  0  0  0  0  0  0  0  0  0
   -3.2569   -0.0160    0.0000 C   0  0  0  0  0  0  0  0  0  0  0  0
    0.6480   -1.0369    0.0000 H   0  0  0  0  0  0  0  0  0  0  0  0
  1  2  1  0  0  0  0
  1  6  2  0  0  0  0
  2  3  2  0  0  0  0
  3  4  1  0  0  0  0
  4  5  2  0  0  0  0
  5  6  1  0  0  0  0
  5 11  1  0  0  0  0
  6  7  1  0  0  0  0
  7  8  2  0  0  0  0
  8  9  1  0  0  0  0
  9 10  2  0  0  0  0
  9 11  1  0  0  0  0
  1 12  1  0  0  0  0
 13 14  1  0  0  0  0
 14 15  2  0  0  0  0
 14 16  1  0  0  0  0
 16 17  1  0  0  0  0
 17 18  1  0  0  0  0
 17 19  1  0  0  0  0
 17 20  1  0  0  0  0
 20 21  1  0  0  0  0
 20 22  1  0  0  0  0
  2 21  1  0  0  0  0
  3 22  1  0  0  0  0
 23 24  1  0  0  0  0
 24 25  1  0  0  0  0
 24 26  1  0  0  0  0
 24 29  1  0  0  0  0
 26 27  1  0  0  0  0
 26 28  1  0  0  0  0
  4 27  1  0  0  0  0
 30 31  1  0  0  0  0
 30 32  1  0  0  0  0
 30 33  1  0  0  0  0
 33 34  2  0  0  0  0
  8 30  1  0  0  0  0
  7 35  1  0  0  0  0
M  END
> <score_KierA1>
0.517616

$$$$
suggested molecule #678
 MOE2019            2D

 35 37  0  0  0  0  0  0  0  0999 V2000
    3.4992   -1.2833    0.0000 C   0  0  0  0  0  0  0  0  0  1  0  0
    4.9992   -1.2762    0.0000 C   0  0  0  0  0  0  0  0  0  2  0  0
    5.7430    0.0263    0.0000 C   0  0  0  0  0  0  0  0  0  3  0  0
    4.9869    1.3218    0.0000 C   0  0  0  0  0  0  0  0  0  4  0  0
    3.4870    1.3147    0.0000 C   0  0  0  0  0  0  0  0  0  5  0  0
    2.7431    0.0122    0.0000 C   0  0  0  0  0  0  0  0  0  6  0  0
    1.2431    0.0051    0.0000 C   0  0  0  0  0  0  0  0  0  7  0  0
    0.4870    1.3006    0.0000 C   0  0  0  0  0  0  0  0  0  8  0  0
    1.2309    2.6032    0.0000 C   0  0  0  0  0  0  0  0  0  9  0  0
    0.4748    3.8987    0.0000 O   0  0  0  0  0  0  0  0  0 10  0  0
    2.7309    2.6102    0.0000 O   0  0  0  0  0  0  0  0  0 11  0  0
    2.9041   -2.3253    0.0000 H   0  0  0  0  0  0  0  0  0  0  0  0
   11.2902   -5.5013    0.0000 C   0  0  0  0  0  0  0  0  0  0  0  0
    9.9877   -4.7574    0.0000 C   0  0  0  0  0  0  0  0  0  0  0  0
    8.6922   -5.5135    0.0000 O   0  0  0  0  0  0  0  0  0  0  0  0
    9.9806   -3.2575    0.0000 O   0  0  0  0  0  0  0  0  0  0  0  0
    8.6781   -2.5136    0.0000 C   0  0  0  0  0  0  0  0  0  0  0  0
    9.4220   -1.2110    0.0000 C   0  0  0  0  0  0  0  0  0  0  0  0
    7.9342   -3.8161    0.0000 C   0  0  0  0  0  0  0  0  0  0  0  0
    7.3755   -1.7697    0.0000 C   0  0  0  0  0  0  0  0  0  0  0  0
    6.0081   -2.3862    0.0000 C   0  0  0  0  0  0  0  0  0  0  0  0
    7.2117   -0.2787    0.0000 O   0  0  0  0  0  0  0  0  0  0  0  0
    8.7186    5.2365    0.0000 C   0  0  0  0  0  0  0  0  0  0  0  0
    7.9747    3.9340    0.0000 C   0  0  0  0  0  0  0  0  0  0  0  0
    6.6721    4.6778    0.0000 C   0  0  0  0  0  0  0  0  0  0  0  0
    7.2308    2.6314    0.0000 C   0  0  0  0  0  0  0  0  0  0  0  0
    5.7308    2.6244    0.0000 C   0  0  0  0  0  0  0  0  0  0  0  0
    7.9869    1.3359    0.0000 O   0  0  0  0  0  0  0  0  0  0  0  0
    9.2772    3.1901    0.0000 O   0  0  0  0  0  0  0  0  0  0  0  0
   -1.0130    1.2936    0.0000 C   0  0  0  0  0  0  0  0  0  0  0  0
   -1.0200    2.7936    0.0000 C   0  0  0  0  0  0  0  0  0  0  0  0
   -1.0059   -0.2064    0.0000 C   0  0  0  0  0  0  0  0  0  0  0  0
   -2.5130    1.2865    0.0000 C   0  0  0  0  0  0  0  0  0  0  0  0
   -3.2569   -0.0160    0.0000 C   0  0  0  0  0  0  0  0  0  0  0  0
    0.6480   -1.0369    0.0000 H   0  0  0  0  0  0  0  0  0  0  0  0
  1  2  1  0  0  0  0
  1  6  2  0  0  0  0
  2  3  2  0  0  0  0
  3  4  1  0  0  0  0
  4  5  2  0  0  0  0
  5  6  1  0  0  0  0
  5 11  1  0  0  0  0
  6  7  1  0  0  0  0
  7  8  2  0  0  0  0
  8  9  1  0  0  0  0
  9 10  2  0  0  0  0
  9 11  1  0  0  0  0
  1 12  1  0  0  0  0
 13 14  1  0  0  0  0
 14 15  2  0  0  0  0
 14 16  1  0  0  0  0
 16 17  1  0  0  0  0
 17 18  1  0  0  0  0
 17 19  1  0  0  0  0
 17 20  1  0  0  0  0
 20 21  1  0  0  0  0
 20 22  1  0  0  0  0
  2 21  1  0  0  0  0
  3 22  1  0  0  0  0
 23 24  1  0  0  0  0
 24 25  1  0  0  0  0
 24 26  1  0  0  0  0
 24 29  1  0  0  0  0
 26 27  1  0  0  0  0
 26 28  1  0  0  0  0
  4 27  1  0  0  0  0
 30 31  1  0  0  0  0
 30 32  1  0  0  0  0
 30 33  1  0  0  0  0
 33 34  2  0  0  0  0
  8 30  1  0  0  0  0
  7 35  1  0  0  0  0
M  END
> <score_KierA2>
0.516749

$$$$
suggested molecule #679
 MOE2019            2D

 36 38  0  0  0  0  0  0  0  0999 V2000
    3.4992   -1.2833    0.0000 C   0  0  0  0  0  0  0  0  0  1  0  0
    4.9992   -1.2762    0.0000 C   0  0  0  0  0  0  0  0  0  2  0  0
    5.7430    0.0263    0.0000 C   0  0  0  0  0  0  0  0  0  3  0  0
    4.9869    1.3218    0.0000 C   0  0  0  0  0  0  0  0  0  4  0  0
    3.4870    1.3147    0.0000 C   0  0  0  0  0  0  0  0  0  5  0  0
    2.7431    0.0122    0.0000 C   0  0  0  0  0  0  0  0  0  6  0  0
    1.2431    0.0051    0.0000 C   0  0  0  0  0  0  0  0  0  7  0  0
    0.4870    1.3006    0.0000 C   0  0  0  0  0  0  0  0  0  8  0  0
    1.2309    2.6032    0.0000 C   0  0  0  0  0  0  0  0  0  9  0  0
    0.4748    3.8987    0.0000 O   0  0  0  0  0  0  0  0  0 10  0  0
    2.7309    2.6102    0.0000 O   0  0  0  0  0  0  0  0  0 11  0  0
    2.9041   -2.3253    0.0000 H   0  0  0  0  0  0  0  0  0  0  0  0
   10.1903   -5.1046    0.0000 C   0  0  0  0  0  0  0  0  0  0  0  0
    8.6903   -5.1116    0.0000 C   0  0  0  0  0  0  0  0  0  0  0  0
    7.9464   -6.4142    0.0000 O   0  0  0  0  0  0  0  0  0  0  0  0
    7.9342   -3.8161    0.0000 O   0  0  0  0  0  0  0  0  0  0  0  0
    8.6781   -2.5136    0.0000 C   0  0  0  0  0  0  0  0  0  0  0  0
    9.9806   -3.2575    0.0000 C   0  0  0  0  0  0  0  0  0  0  0  0
    9.4220   -1.2110    0.0000 C   0  0  0  0  0  0  0  0  0  0  0  0
    7.3755   -1.7697    0.0000 C   0  0  0  0  0  0  0  0  0  0  0  0
    6.0081   -2.3862    0.0000 C   0  0  0  0  0  0  0  0  0  0  0  0
    7.2117   -0.2787    0.0000 O   0  0  0  0  0  0  0  0  0  0  0  0
    7.2186    5.2295    0.0000 C   0  0  0  0  0  0  0  0  0  0  0  0
    7.9747    3.9340    0.0000 C   0  0  0  0  0  0  0  0  0  0  0  0
    9.4747    3.9410    0.0000 C   0  0  0  0  0  0  0  0  0  0  0  0
    7.2308    2.6314    0.0000 C   0  0  0  0  0  0  0  0  0  0  0  0
    5.7308    2.6244    0.0000 C   0  0  0  0  0  0  0  0  0  0  0  0
    4.9747    3.9198    0.0000 O   0  0  0  0  0  0  0  0  0  0  0  0
    5.7186    5.2224    0.0000 C   0  0  0  0  0  0  0  0  0  0  0  0
    7.9869    1.3359    0.0000 O   0  0  0  0  0  0  0  0  0  0  0  0
   -1.0130    1.2936    0.0000 C   0  0  0  0  0  0  0  0  0  0  0  0
   -1.0200    2.7936    0.0000 C   0  0  0  0  0  0  0  0  0  0  0  0
   -1.0059   -0.2064    0.0000 C   0  0  0  0  0  0  0  0  0  0  0  0
   -2.5130    1.2865    0.0000 C   0  0  0  0  0  0  0  0  0  0  0  0
   -3.2569   -0.0160    0.0000 C   0  0  0  0  0  0  0  0  0  0  0  0
    0.6480   -1.0369    0.0000 H   0  0  0  0  0  0  0  0  0  0  0  0
  1  2  1  0  0  0  0
  1  6  2  0  0  0  0
  2  3  2  0  0  0  0
  3  4  1  0  0  0  0
  4  5  2  0  0  0  0
  5  6  1  0  0  0  0
  5 11  1  0  0  0  0
  6  7  1  0  0  0  0
  7  8  2  0  0  0  0
  8  9  1  0  0  0  0
  9 10  2  0  0  0  0
  9 11  1  0  0  0  0
  1 12  1  0  0  0  0
 13 14  1  0  0  0  0
 14 15  2  0  0  0  0
 14 16  1  0  0  0  0
 16 17  1  0  0  0  0
 17 18  1  0  0  0  0
 17 19  1  0  0  0  0
 17 20  1  0  0  0  0
 20 21  1  0  0  0  0
 20 22  1  0  0  0  0
  2 21  1  0  0  0  0
  3 22  1  0  0  0  0
 23 24  1  0  0  0  0
 24 25  2  0  0  0  0
 24 26  1  0  0  0  0
 26 27  1  0  0  0  0
 26 30  1  0  0  0  0
 27 28  1  0  0  0  0
 28 29  1  0  0  0  0
  4 27  1  0  0  0  0
 31 32  1  0  0  0  0
 31 33  1  0  0  0  0
 31 34  1  0  0  0  0
 34 35  2  0  0  0  0
  8 31  1  0  0  0  0
  7 36  1  0  0  0  0
M  END
> <score_Kier1>
0.517762

$$$$
suggested molecule #680
 MOE2019            2D

 36 38  0  0  0  0  0  0  0  0999 V2000
    3.4992   -1.2833    0.0000 C   0  0  0  0  0  0  0  0  0  1  0  0
    4.9992   -1.2762    0.0000 C   0  0  0  0  0  0  0  0  0  2  0  0
    5.7430    0.0263    0.0000 C   0  0  0  0  0  0  0  0  0  3  0  0
    4.9869    1.3218    0.0000 C   0  0  0  0  0  0  0  0  0  4  0  0
    3.4870    1.3147    0.0000 C   0  0  0  0  0  0  0  0  0  5  0  0
    2.7431    0.0122    0.0000 C   0  0  0  0  0  0  0  0  0  6  0  0
    1.2431    0.0051    0.0000 C   0  0  0  0  0  0  0  0  0  7  0  0
    0.4870    1.3006    0.0000 C   0  0  0  0  0  0  0  0  0  8  0  0
    1.2309    2.6032    0.0000 C   0  0  0  0  0  0  0  0  0  9  0  0
    0.4748    3.8987    0.0000 O   0  0  0  0  0  0  0  0  0 10  0  0
    2.7309    2.6102    0.0000 O   0  0  0  0  0  0  0  0  0 11  0  0
    2.9041   -2.3253    0.0000 H   0  0  0  0  0  0  0  0  0  0  0  0
   10.1903   -5.1046    0.0000 C   0  0  0  0  0  0  0  0  0  0  0  0
    8.6903   -5.1116    0.0000 C   0  0  0  0  0  0  0  0  0  0  0  0
    7.9464   -6.4142    0.0000 O   0  0  0  0  0  0  0  0  0  0  0  0
    7.9342   -3.8161    0.0000 O   0  0  0  0  0  0  0  0  0  0  0  0
    8.6781   -2.5136    0.0000 C   0  0  0  0  0  0  0  0  0  0  0  0
    9.9806   -3.2575    0.0000 C   0  0  0  0  0  0  0  0  0  0  0  0
    9.4220   -1.2110    0.0000 C   0  0  0  0  0  0  0  0  0  0  0  0
    7.3755   -1.7697    0.0000 C   0  0  0  0  0  0  0  0  0  0  0  0
    6.0081   -2.3862    0.0000 C   0  0  0  0  0  0  0  0  0  0  0  0
    7.2117   -0.2787    0.0000 O   0  0  0  0  0  0  0  0  0  0  0  0
    7.2186    5.2295    0.0000 C   0  0  0  0  0  0  0  0  0  0  0  0
    7.9747    3.9340    0.0000 C   0  0  0  0  0  0  0  0  0  0  0  0
    9.4747    3.9410    0.0000 C   0  0  0  0  0  0  0  0  0  0  0  0
    7.2308    2.6314    0.0000 C   0  0  0  0  0  0  0  0  0  0  0  0
    5.7308    2.6244    0.0000 C   0  0  0  0  0  0  0  0  0  0  0  0
    4.9747    3.9198    0.0000 O   0  0  0  0  0  0  0  0  0  0  0  0
    5.7186    5.2224    0.0000 C   0  0  0  0  0  0  0  0  0  0  0  0
    7.9869    1.3359    0.0000 O   0  0  0  0  0  0  0  0  0  0  0  0
   -1.0130    1.2936    0.0000 C   0  0  0  0  0  0  0  0  0  0  0  0
   -1.0200    2.7936    0.0000 C   0  0  0  0  0  0  0  0  0  0  0  0
   -1.0059   -0.2064    0.0000 C   0  0  0  0  0  0  0  0  0  0  0  0
   -2.5130    1.2865    0.0000 C   0  0  0  0  0  0  0  0  0  0  0  0
   -3.2569   -0.0160    0.0000 C   0  0  0  0  0  0  0  0  0  0  0  0
    0.6480   -1.0369    0.0000 H   0  0  0  0  0  0  0  0  0  0  0  0
  1  2  1  0  0  0  0
  1  6  2  0  0  0  0
  2  3  2  0  0  0  0
  3  4  1  0  0  0  0
  4  5  2  0  0  0  0
  5  6  1  0  0  0  0
  5 11  1  0  0  0  0
  6  7  1  0  0  0  0
  7  8  2  0  0  0  0
  8  9  1  0  0  0  0
  9 10  2  0  0  0  0
  9 11  1  0  0  0  0
  1 12  1  0  0  0  0
 13 14  1  0  0  0  0
 14 15  2  0  0  0  0
 14 16  1  0  0  0  0
 16 17  1  0  0  0  0
 17 18  1  0  0  0  0
 17 19  1  0  0  0  0
 17 20  1  0  0  0  0
 20 21  1  0  0  0  0
 20 22  1  0  0  0  0
  2 21  1  0  0  0  0
  3 22  1  0  0  0  0
 23 24  1  0  0  0  0
 24 25  2  0  0  0  0
 24 26  1  0  0  0  0
 26 27  1  0  0  0  0
 26 30  1  0  0  0  0
 27 28  1  0  0  0  0
 28 29  1  0  0  0  0
  4 27  1  0  0  0  0
 31 32  1  0  0  0  0
 31 33  1  0  0  0  0
 31 34  1  0  0  0  0
 34 35  2  0  0  0  0
  8 31  1  0  0  0  0
  7 36  1  0  0  0  0
M  END
> <score_Kier2>
0.516522

$$$$
suggested molecule #681
 MOE2019            2D

 36 38  0  0  0  0  0  0  0  0999 V2000
    3.4992   -1.2833    0.0000 C   0  0  0  0  0  0  0  0  0  1  0  0
    4.9992   -1.2762    0.0000 C   0  0  0  0  0  0  0  0  0  2  0  0
    5.7430    0.0263    0.0000 C   0  0  0  0  0  0  0  0  0  3  0  0
    4.9869    1.3218    0.0000 C   0  0  0  0  0  0  0  0  0  4  0  0
    3.4870    1.3147    0.0000 C   0  0  0  0  0  0  0  0  0  5  0  0
    2.7431    0.0122    0.0000 C   0  0  0  0  0  0  0  0  0  6  0  0
    1.2431    0.0051    0.0000 C   0  0  0  0  0  0  0  0  0  7  0  0
    0.4870    1.3006    0.0000 C   0  0  0  0  0  0  0  0  0  8  0  0
    1.2309    2.6032    0.0000 C   0  0  0  0  0  0  0  0  0  9  0  0
    0.4748    3.8987    0.0000 O   0  0  0  0  0  0  0  0  0 10  0  0
    2.7309    2.6102    0.0000 O   0  0  0  0  0  0  0  0  0 11  0  0
    2.9041   -2.3253    0.0000 H   0  0  0  0  0  0  0  0  0  0  0  0
   10.1903   -5.1046    0.0000 C   0  0  0  0  0  0  0  0  0  0  0  0
    8.6903   -5.1116    0.0000 C   0  0  0  0  0  0  0  0  0  0  0  0
    7.9464   -6.4142    0.0000 O   0  0  0  0  0  0  0  0  0  0  0  0
    7.9342   -3.8161    0.0000 O   0  0  0  0  0  0  0  0  0  0  0  0
    8.6781   -2.5136    0.0000 C   0  0  0  0  0  0  0  0  0  0  0  0
    9.9806   -3.2575    0.0000 C   0  0  0  0  0  0  0  0  0  0  0  0
    9.4220   -1.2110    0.0000 C   0  0  0  0  0  0  0  0  0  0  0  0
    7.3755   -1.7697    0.0000 C   0  0  0  0  0  0  0  0  0  0  0  0
    6.0081   -2.3862    0.0000 C   0  0  0  0  0  0  0  0  0  0  0  0
    7.2117   -0.2787    0.0000 O   0  0  0  0  0  0  0  0  0  0  0  0
    7.2186    5.2295    0.0000 C   0  0  0  0  0  0  0  0  0  0  0  0
    7.9747    3.9340    0.0000 C   0  0  0  0  0  0  0  0  0  0  0  0
    9.4747    3.9410    0.0000 C   0  0  0  0  0  0  0  0  0  0  0  0
    7.2308    2.6314    0.0000 C   0  0  0  0  0  0  0  0  0  0  0  0
    5.7308    2.6244    0.0000 C   0  0  0  0  0  0  0  0  0  0  0  0
    4.9747    3.9198    0.0000 O   0  0  0  0  0  0  0  0  0  0  0  0
    5.7186    5.2224    0.0000 C   0  0  0  0  0  0  0  0  0  0  0  0
    7.9869    1.3359    0.0000 O   0  0  0  0  0  0  0  0  0  0  0  0
   -1.0130    1.2936    0.0000 C   0  0  0  0  0  0  0  0  0  0  0  0
   -1.0200    2.7936    0.0000 C   0  0  0  0  0  0  0  0  0  0  0  0
   -1.0059   -0.2064    0.0000 C   0  0  0  0  0  0  0  0  0  0  0  0
   -2.5130    1.2865    0.0000 C   0  0  0  0  0  0  0  0  0  0  0  0
   -3.2569   -0.0160    0.0000 C   0  0  0  0  0  0  0  0  0  0  0  0
    0.6480   -1.0369    0.0000 H   0  0  0  0  0  0  0  0  0  0  0  0
  1  2  1  0  0  0  0
  1  6  2  0  0  0  0
  2  3  2  0  0  0  0
  3  4  1  0  0  0  0
  4  5  2  0  0  0  0
  5  6  1  0  0  0  0
  5 11  1  0  0  0  0
  6  7  1  0  0  0  0
  7  8  2  0  0  0  0
  8  9  1  0  0  0  0
  9 10  2  0  0  0  0
  9 11  1  0  0  0  0
  1 12  1  0  0  0  0
 13 14  1  0  0  0  0
 14 15  2  0  0  0  0
 14 16  1  0  0  0  0
 16 17  1  0  0  0  0
 17 18  1  0  0  0  0
 17 19  1  0  0  0  0
 17 20  1  0  0  0  0
 20 21  1  0  0  0  0
 20 22  1  0  0  0  0
  2 21  1  0  0  0  0
  3 22  1  0  0  0  0
 23 24  1  0  0  0  0
 24 25  2  0  0  0  0
 24 26  1  0  0  0  0
 26 27  1  0  0  0  0
 26 30  1  0  0  0  0
 27 28  1  0  0  0  0
 28 29  1  0  0  0  0
  4 27  1  0  0  0  0
 31 32  1  0  0  0  0
 31 33  1  0  0  0  0
 31 34  1  0  0  0  0
 34 35  2  0  0  0  0
  8 31  1  0  0  0  0
  7 36  1  0  0  0  0
M  END
> <score_KierA1>
0.517612

$$$$
suggested molecule #682
 MOE2019            2D

 36 38  0  0  0  0  0  0  0  0999 V2000
    3.4992   -1.2833    0.0000 C   0  0  0  0  0  0  0  0  0  1  0  0
    4.9992   -1.2762    0.0000 C   0  0  0  0  0  0  0  0  0  2  0  0
    5.7430    0.0263    0.0000 C   0  0  0  0  0  0  0  0  0  3  0  0
    4.9869    1.3218    0.0000 C   0  0  0  0  0  0  0  0  0  4  0  0
    3.4870    1.3147    0.0000 C   0  0  0  0  0  0  0  0  0  5  0  0
    2.7431    0.0122    0.0000 C   0  0  0  0  0  0  0  0  0  6  0  0
    1.2431    0.0051    0.0000 C   0  0  0  0  0  0  0  0  0  7  0  0
    0.4870    1.3006    0.0000 C   0  0  0  0  0  0  0  0  0  8  0  0
    1.2309    2.6032    0.0000 C   0  0  0  0  0  0  0  0  0  9  0  0
    0.4748    3.8987    0.0000 O   0  0  0  0  0  0  0  0  0 10  0  0
    2.7309    2.6102    0.0000 O   0  0  0  0  0  0  0  0  0 11  0  0
    2.9041   -2.3253    0.0000 H   0  0  0  0  0  0  0  0  0  0  0  0
   10.1903   -5.1046    0.0000 C   0  0  0  0  0  0  0  0  0  0  0  0
    8.6903   -5.1116    0.0000 C   0  0  0  0  0  0  0  0  0  0  0  0
    7.9464   -6.4142    0.0000 O   0  0  0  0  0  0  0  0  0  0  0  0
    7.9342   -3.8161    0.0000 O   0  0  0  0  0  0  0  0  0  0  0  0
    8.6781   -2.5136    0.0000 C   0  0  0  0  0  0  0  0  0  0  0  0
    9.9806   -3.2575    0.0000 C   0  0  0  0  0  0  0  0  0  0  0  0
    9.4220   -1.2110    0.0000 C   0  0  0  0  0  0  0  0  0  0  0  0
    7.3755   -1.7697    0.0000 C   0  0  0  0  0  0  0  0  0  0  0  0
    6.0081   -2.3862    0.0000 C   0  0  0  0  0  0  0  0  0  0  0  0
    7.2117   -0.2787    0.0000 O   0  0  0  0  0  0  0  0  0  0  0  0
    7.2186    5.2295    0.0000 C   0  0  0  0  0  0  0  0  0  0  0  0
    7.9747    3.9340    0.0000 C   0  0  0  0  0  0  0  0  0  0  0  0
    9.4747    3.9410    0.0000 C   0  0  0  0  0  0  0  0  0  0  0  0
    7.2308    2.6314    0.0000 C   0  0  0  0  0  0  0  0  0  0  0  0
    5.7308    2.6244    0.0000 C   0  0  0  0  0  0  0  0  0  0  0  0
    4.9747    3.9198    0.0000 O   0  0  0  0  0  0  0  0  0  0  0  0
    5.7186    5.2224    0.0000 C   0  0  0  0  0  0  0  0  0  0  0  0
    7.9869    1.3359    0.0000 O   0  0  0  0  0  0  0  0  0  0  0  0
   -1.0130    1.2936    0.0000 C   0  0  0  0  0  0  0  0  0  0  0  0
   -1.0200    2.7936    0.0000 C   0  0  0  0  0  0  0  0  0  0  0  0
   -1.0059   -0.2064    0.0000 C   0  0  0  0  0  0  0  0  0  0  0  0
   -2.5130    1.2865    0.0000 C   0  0  0  0  0  0  0  0  0  0  0  0
   -3.2569   -0.0160    0.0000 C   0  0  0  0  0  0  0  0  0  0  0  0
    0.6480   -1.0369    0.0000 H   0  0  0  0  0  0  0  0  0  0  0  0
  1  2  1  0  0  0  0
  1  6  2  0  0  0  0
  2  3  2  0  0  0  0
  3  4  1  0  0  0  0
  4  5  2  0  0  0  0
  5  6  1  0  0  0  0
  5 11  1  0  0  0  0
  6  7  1  0  0  0  0
  7  8  2  0  0  0  0
  8  9  1  0  0  0  0
  9 10  2  0  0  0  0
  9 11  1  0  0  0  0
  1 12  1  0  0  0  0
 13 14  1  0  0  0  0
 14 15  2  0  0  0  0
 14 16  1  0  0  0  0
 16 17  1  0  0  0  0
 17 18  1  0  0  0  0
 17 19  1  0  0  0  0
 17 20  1  0  0  0  0
 20 21  1  0  0  0  0
 20 22  1  0  0  0  0
  2 21  1  0  0  0  0
  3 22  1  0  0  0  0
 23 24  1  0  0  0  0
 24 25  2  0  0  0  0
 24 26  1  0  0  0  0
 26 27  1  0  0  0  0
 26 30  1  0  0  0  0
 27 28  1  0  0  0  0
 28 29  1  0  0  0  0
  4 27  1  0  0  0  0
 31 32  1  0  0  0  0
 31 33  1  0  0  0  0
 31 34  1  0  0  0  0
 34 35  2  0  0  0  0
  8 31  1  0  0  0  0
  7 36  1  0  0  0  0
M  END
> <score_KierA2>
0.516735

$$$$
suggested molecule #683
 MOE2019            2D

 35 37  0  0  0  0  0  0  0  0999 V2000
    3.4992   -1.2833    0.0000 C   0  0  0  0  0  0  0  0  0  1  0  0
    4.9992   -1.2762    0.0000 C   0  0  0  0  0  0  0  0  0  2  0  0
    5.7430    0.0263    0.0000 C   0  0  0  0  0  0  0  0  0  3  0  0
    4.9869    1.3218    0.0000 C   0  0  0  0  0  0  0  0  0  4  0  0
    3.4870    1.3147    0.0000 C   0  0  0  0  0  0  0  0  0  5  0  0
    2.7431    0.0122    0.0000 C   0  0  0  0  0  0  0  0  0  6  0  0
    1.2431    0.0051    0.0000 C   0  0  0  0  0  0  0  0  0  7  0  0
    0.4870    1.3006    0.0000 C   0  0  0  0  0  0  0  0  0  8  0  0
    1.2309    2.6032    0.0000 C   0  0  0  0  0  0  0  0  0  9  0  0
    0.4748    3.8987    0.0000 O   0  0  0  0  0  0  0  0  0 10  0  0
    2.7309    2.6102    0.0000 O   0  0  0  0  0  0  0  0  0 11  0  0
    2.9041   -2.3253    0.0000 H   0  0  0  0  0  0  0  0  0  0  0  0
   11.2902   -5.5013    0.0000 C   0  0  0  0  0  0  0  0  0  0  0  0
    9.9877   -4.7574    0.0000 C   0  0  0  0  0  0  0  0  0  0  0  0
    8.6922   -5.5135    0.0000 O   0  0  0  0  0  0  0  0  0  0  0  0
    9.9806   -3.2575    0.0000 O   0  0  0  0  0  0  0  0  0  0  0  0
    8.6781   -2.5136    0.0000 C   0  0  0  0  0  0  0  0  0  0  0  0
    9.4220   -1.2110    0.0000 C   0  0  0  0  0  0  0  0  0  0  0  0
    7.9342   -3.8161    0.0000 C   0  0  0  0  0  0  0  0  0  0  0  0
    7.3755   -1.7697    0.0000 C   0  0  0  0  0  0  0  0  0  0  0  0
    6.0081   -2.3862    0.0000 C   0  0  0  0  0  0  0  0  0  0  0  0
    7.2117   -0.2787    0.0000 O   0  0  0  0  0  0  0  0  0  0  0  0
    8.7186    5.2365    0.0000 C   0  0  0  0  0  0  0  0  0  0  0  0
    7.9747    3.9340    0.0000 C   0  0  0  0  0  0  0  0  0  0  0  0
    6.6721    4.6778    0.0000 C   0  0  0  0  0  0  0  0  0  0  0  0
    7.2308    2.6314    0.0000 C   0  0  0  0  0  0  0  0  0  0  0  0
    5.7308    2.6244    0.0000 C   0  0  0  0  0  0  0  0  0  0  0  0
    7.9869    1.3359    0.0000 O   0  0  0  0  0  0  0  0  0  0  0  0
    9.2772    3.1901    0.0000 O   0  0  0  0  0  0  0  0  0  0  0  0
   -1.0130    1.2936    0.0000 C   0  0  0  0  0  0  0  0  0  0  0  0
   -1.0200    2.7936    0.0000 C   0  0  0  0  0  0  0  0  0  0  0  0
   -1.0059   -0.2064    0.0000 C   0  0  0  0  0  0  0  0  0  0  0  0
   -2.5130    1.2865    0.0000 C   0  0  0  0  0  0  0  0  0  0  0  0
   -3.2569   -0.0160    0.0000 C   0  0  0  0  0  0  0  0  0  0  0  0
    0.6480   -1.0369    0.0000 H   0  0  0  0  0  0  0  0  0  0  0  0
  1  2  1  0  0  0  0
  1  6  2  0  0  0  0
  2  3  2  0  0  0  0
  3  4  1  0  0  0  0
  4  5  2  0  0  0  0
  5  6  1  0  0  0  0
  5 11  1  0  0  0  0
  6  7  1  0  0  0  0
  7  8  2  0  0  0  0
  8  9  1  0  0  0  0
  9 10  2  0  0  0  0
  9 11  1  0  0  0  0
  1 12  1  0  0  0  0
 13 14  1  0  0  0  0
 14 15  2  0  0  0  0
 14 16  1  0  0  0  0
 16 17  1  0  0  0  0
 17 18  1  0  0  0  0
 17 19  1  0  0  0  0
 17 20  1  0  0  0  0
 20 21  1  0  0  0  0
 20 22  1  0  0  0  0
  2 21  1  0  0  0  0
  3 22  1  0  0  0  0
 23 24  1  0  0  0  0
 24 25  1  0  0  0  0
 24 26  1  0  0  0  0
 24 29  1  0  0  0  0
 26 27  1  0  0  0  0
 26 28  1  0  0  0  0
  4 27  1  0  0  0  0
 30 31  1  0  0  0  0
 30 32  1  0  0  0  0
 30 33  1  0  0  0  0
 33 34  2  0  0  0  0
  8 30  1  0  0  0  0
  7 35  1  0  0  0  0
M  END
> <score_Kier1>
0.5178

$$$$
suggested molecule #684
 MOE2019            2D

 35 37  0  0  0  0  0  0  0  0999 V2000
    3.4992   -1.2833    0.0000 C   0  0  0  0  0  0  0  0  0  1  0  0
    4.9992   -1.2762    0.0000 C   0  0  0  0  0  0  0  0  0  2  0  0
    5.7430    0.0263    0.0000 C   0  0  0  0  0  0  0  0  0  3  0  0
    4.9869    1.3218    0.0000 C   0  0  0  0  0  0  0  0  0  4  0  0
    3.4870    1.3147    0.0000 C   0  0  0  0  0  0  0  0  0  5  0  0
    2.7431    0.0122    0.0000 C   0  0  0  0  0  0  0  0  0  6  0  0
    1.2431    0.0051    0.0000 C   0  0  0  0  0  0  0  0  0  7  0  0
    0.4870    1.3006    0.0000 C   0  0  0  0  0  0  0  0  0  8  0  0
    1.2309    2.6032    0.0000 C   0  0  0  0  0  0  0  0  0  9  0  0
    0.4748    3.8987    0.0000 O   0  0  0  0  0  0  0  0  0 10  0  0
    2.7309    2.6102    0.0000 O   0  0  0  0  0  0  0  0  0 11  0  0
    2.9041   -2.3253    0.0000 H   0  0  0  0  0  0  0  0  0  0  0  0
   11.2902   -5.5013    0.0000 C   0  0  0  0  0  0  0  0  0  0  0  0
    9.9877   -4.7574    0.0000 C   0  0  0  0  0  0  0  0  0  0  0  0
    8.6922   -5.5135    0.0000 O   0  0  0  0  0  0  0  0  0  0  0  0
    9.9806   -3.2575    0.0000 O   0  0  0  0  0  0  0  0  0  0  0  0
    8.6781   -2.5136    0.0000 C   0  0  0  0  0  0  0  0  0  0  0  0
    9.4220   -1.2110    0.0000 C   0  0  0  0  0  0  0  0  0  0  0  0
    7.9342   -3.8161    0.0000 C   0  0  0  0  0  0  0  0  0  0  0  0
    7.3755   -1.7697    0.0000 C   0  0  0  0  0  0  0  0  0  0  0  0
    6.0081   -2.3862    0.0000 C   0  0  0  0  0  0  0  0  0  0  0  0
    7.2117   -0.2787    0.0000 O   0  0  0  0  0  0  0  0  0  0  0  0
    8.7186    5.2365    0.0000 C   0  0  0  0  0  0  0  0  0  0  0  0
    7.9747    3.9340    0.0000 C   0  0  0  0  0  0  0  0  0  0  0  0
    6.6721    4.6778    0.0000 C   0  0  0  0  0  0  0  0  0  0  0  0
    7.2308    2.6314    0.0000 C   0  0  0  0  0  0  0  0  0  0  0  0
    5.7308    2.6244    0.0000 C   0  0  0  0  0  0  0  0  0  0  0  0
    7.9869    1.3359    0.0000 O   0  0  0  0  0  0  0  0  0  0  0  0
    9.2772    3.1901    0.0000 O   0  0  0  0  0  0  0  0  0  0  0  0
   -1.0130    1.2936    0.0000 C   0  0  0  0  0  0  0  0  0  0  0  0
   -1.0200    2.7936    0.0000 C   0  0  0  0  0  0  0  0  0  0  0  0
   -1.0059   -0.2064    0.0000 C   0  0  0  0  0  0  0  0  0  0  0  0
   -2.5130    1.2865    0.0000 C   0  0  0  0  0  0  0  0  0  0  0  0
   -3.2569   -0.0160    0.0000 C   0  0  0  0  0  0  0  0  0  0  0  0
    0.6480   -1.0369    0.0000 H   0  0  0  0  0  0  0  0  0  0  0  0
  1  2  1  0  0  0  0
  1  6  2  0  0  0  0
  2  3  2  0  0  0  0
  3  4  1  0  0  0  0
  4  5  2  0  0  0  0
  5  6  1  0  0  0  0
  5 11  1  0  0  0  0
  6  7  1  0  0  0  0
  7  8  2  0  0  0  0
  8  9  1  0  0  0  0
  9 10  2  0  0  0  0
  9 11  1  0  0  0  0
  1 12  1  0  0  0  0
 13 14  1  0  0  0  0
 14 15  2  0  0  0  0
 14 16  1  0  0  0  0
 16 17  1  0  0  0  0
 17 18  1  0  0  0  0
 17 19  1  0  0  0  0
 17 20  1  0  0  0  0
 20 21  1  0  0  0  0
 20 22  1  0  0  0  0
  2 21  1  0  0  0  0
  3 22  1  0  0  0  0
 23 24  1  0  0  0  0
 24 25  1  0  0  0  0
 24 26  1  0  0  0  0
 24 29  1  0  0  0  0
 26 27  1  0  0  0  0
 26 28  1  0  0  0  0
  4 27  1  0  0  0  0
 30 31  1  0  0  0  0
 30 32  1  0  0  0  0
 30 33  1  0  0  0  0
 33 34  2  0  0  0  0
  8 30  1  0  0  0  0
  7 35  1  0  0  0  0
M  END
> <score_Kier2>
0.51658

$$$$
suggested molecule #685
 MOE2019            2D

 35 37  0  0  0  0  0  0  0  0999 V2000
    3.4992   -1.2833    0.0000 C   0  0  0  0  0  0  0  0  0  1  0  0
    4.9992   -1.2762    0.0000 C   0  0  0  0  0  0  0  0  0  2  0  0
    5.7430    0.0263    0.0000 C   0  0  0  0  0  0  0  0  0  3  0  0
    4.9869    1.3218    0.0000 C   0  0  0  0  0  0  0  0  0  4  0  0
    3.4870    1.3147    0.0000 C   0  0  0  0  0  0  0  0  0  5  0  0
    2.7431    0.0122    0.0000 C   0  0  0  0  0  0  0  0  0  6  0  0
    1.2431    0.0051    0.0000 C   0  0  0  0  0  0  0  0  0  7  0  0
    0.4870    1.3006    0.0000 C   0  0  0  0  0  0  0  0  0  8  0  0
    1.2309    2.6032    0.0000 C   0  0  0  0  0  0  0  0  0  9  0  0
    0.4748    3.8987    0.0000 O   0  0  0  0  0  0  0  0  0 10  0  0
    2.7309    2.6102    0.0000 O   0  0  0  0  0  0  0  0  0 11  0  0
    2.9041   -2.3253    0.0000 H   0  0  0  0  0  0  0  0  0  0  0  0
   11.2902   -5.5013    0.0000 C   0  0  0  0  0  0  0  0  0  0  0  0
    9.9877   -4.7574    0.0000 C   0  0  0  0  0  0  0  0  0  0  0  0
    8.6922   -5.5135    0.0000 O   0  0  0  0  0  0  0  0  0  0  0  0
    9.9806   -3.2575    0.0000 O   0  0  0  0  0  0  0  0  0  0  0  0
    8.6781   -2.5136    0.0000 C   0  0  0  0  0  0  0  0  0  0  0  0
    9.4220   -1.2110    0.0000 C   0  0  0  0  0  0  0  0  0  0  0  0
    7.9342   -3.8161    0.0000 C   0  0  0  0  0  0  0  0  0  0  0  0
    7.3755   -1.7697    0.0000 C   0  0  0  0  0  0  0  0  0  0  0  0
    6.0081   -2.3862    0.0000 C   0  0  0  0  0  0  0  0  0  0  0  0
    7.2117   -0.2787    0.0000 O   0  0  0  0  0  0  0  0  0  0  0  0
    8.7186    5.2365    0.0000 C   0  0  0  0  0  0  0  0  0  0  0  0
    7.9747    3.9340    0.0000 C   0  0  0  0  0  0  0  0  0  0  0  0
    6.6721    4.6778    0.0000 C   0  0  0  0  0  0  0  0  0  0  0  0
    7.2308    2.6314    0.0000 C   0  0  0  0  0  0  0  0  0  0  0  0
    5.7308    2.6244    0.0000 C   0  0  0  0  0  0  0  0  0  0  0  0
    7.9869    1.3359    0.0000 O   0  0  0  0  0  0  0  0  0  0  0  0
    9.2772    3.1901    0.0000 O   0  0  0  0  0  0  0  0  0  0  0  0
   -1.0130    1.2936    0.0000 C   0  0  0  0  0  0  0  0  0  0  0  0
   -1.0200    2.7936    0.0000 C   0  0  0  0  0  0  0  0  0  0  0  0
   -1.0059   -0.2064    0.0000 C   0  0  0  0  0  0  0  0  0  0  0  0
   -2.5130    1.2865    0.0000 C   0  0  0  0  0  0  0  0  0  0  0  0
   -3.2569   -0.0160    0.0000 C   0  0  0  0  0  0  0  0  0  0  0  0
    0.6480   -1.0369    0.0000 H   0  0  0  0  0  0  0  0  0  0  0  0
  1  2  1  0  0  0  0
  1  6  2  0  0  0  0
  2  3  2  0  0  0  0
  3  4  1  0  0  0  0
  4  5  2  0  0  0  0
  5  6  1  0  0  0  0
  5 11  1  0  0  0  0
  6  7  1  0  0  0  0
  7  8  2  0  0  0  0
  8  9  1  0  0  0  0
  9 10  2  0  0  0  0
  9 11  1  0  0  0  0
  1 12  1  0  0  0  0
 13 14  1  0  0  0  0
 14 15  2  0  0  0  0
 14 16  1  0  0  0  0
 16 17  1  0  0  0  0
 17 18  1  0  0  0  0
 17 19  1  0  0  0  0
 17 20  1  0  0  0  0
 20 21  1  0  0  0  0
 20 22  1  0  0  0  0
  2 21  1  0  0  0  0
  3 22  1  0  0  0  0
 23 24  1  0  0  0  0
 24 25  1  0  0  0  0
 24 26  1  0  0  0  0
 24 29  1  0  0  0  0
 26 27  1  0  0  0  0
 26 28  1  0  0  0  0
  4 27  1  0  0  0  0
 30 31  1  0  0  0  0
 30 32  1  0  0  0  0
 30 33  1  0  0  0  0
 33 34  2  0  0  0  0
  8 30  1  0  0  0  0
  7 35  1  0  0  0  0
M  END
> <score_KierA1>
0.517648

$$$$
suggested molecule #686
 MOE2019            2D

 35 37  0  0  0  0  0  0  0  0999 V2000
    3.4992   -1.2833    0.0000 C   0  0  0  0  0  0  0  0  0  1  0  0
    4.9992   -1.2762    0.0000 C   0  0  0  0  0  0  0  0  0  2  0  0
    5.7430    0.0263    0.0000 C   0  0  0  0  0  0  0  0  0  3  0  0
    4.9869    1.3218    0.0000 C   0  0  0  0  0  0  0  0  0  4  0  0
    3.4870    1.3147    0.0000 C   0  0  0  0  0  0  0  0  0  5  0  0
    2.7431    0.0122    0.0000 C   0  0  0  0  0  0  0  0  0  6  0  0
    1.2431    0.0051    0.0000 C   0  0  0  0  0  0  0  0  0  7  0  0
    0.4870    1.3006    0.0000 C   0  0  0  0  0  0  0  0  0  8  0  0
    1.2309    2.6032    0.0000 C   0  0  0  0  0  0  0  0  0  9  0  0
    0.4748    3.8987    0.0000 O   0  0  0  0  0  0  0  0  0 10  0  0
    2.7309    2.6102    0.0000 O   0  0  0  0  0  0  0  0  0 11  0  0
    2.9041   -2.3253    0.0000 H   0  0  0  0  0  0  0  0  0  0  0  0
   11.2902   -5.5013    0.0000 C   0  0  0  0  0  0  0  0  0  0  0  0
    9.9877   -4.7574    0.0000 C   0  0  0  0  0  0  0  0  0  0  0  0
    8.6922   -5.5135    0.0000 O   0  0  0  0  0  0  0  0  0  0  0  0
    9.9806   -3.2575    0.0000 O   0  0  0  0  0  0  0  0  0  0  0  0
    8.6781   -2.5136    0.0000 C   0  0  0  0  0  0  0  0  0  0  0  0
    9.4220   -1.2110    0.0000 C   0  0  0  0  0  0  0  0  0  0  0  0
    7.9342   -3.8161    0.0000 C   0  0  0  0  0  0  0  0  0  0  0  0
    7.3755   -1.7697    0.0000 C   0  0  0  0  0  0  0  0  0  0  0  0
    6.0081   -2.3862    0.0000 C   0  0  0  0  0  0  0  0  0  0  0  0
    7.2117   -0.2787    0.0000 O   0  0  0  0  0  0  0  0  0  0  0  0
    8.7186    5.2365    0.0000 C   0  0  0  0  0  0  0  0  0  0  0  0
    7.9747    3.9340    0.0000 C   0  0  0  0  0  0  0  0  0  0  0  0
    6.6721    4.6778    0.0000 C   0  0  0  0  0  0  0  0  0  0  0  0
    7.2308    2.6314    0.0000 C   0  0  0  0  0  0  0  0  0  0  0  0
    5.7308    2.6244    0.0000 C   0  0  0  0  0  0  0  0  0  0  0  0
    7.9869    1.3359    0.0000 O   0  0  0  0  0  0  0  0  0  0  0  0
    9.2772    3.1901    0.0000 O   0  0  0  0  0  0  0  0  0  0  0  0
   -1.0130    1.2936    0.0000 C   0  0  0  0  0  0  0  0  0  0  0  0
   -1.0200    2.7936    0.0000 C   0  0  0  0  0  0  0  0  0  0  0  0
   -1.0059   -0.2064    0.0000 C   0  0  0  0  0  0  0  0  0  0  0  0
   -2.5130    1.2865    0.0000 C   0  0  0  0  0  0  0  0  0  0  0  0
   -3.2569   -0.0160    0.0000 C   0  0  0  0  0  0  0  0  0  0  0  0
    0.6480   -1.0369    0.0000 H   0  0  0  0  0  0  0  0  0  0  0  0
  1  2  1  0  0  0  0
  1  6  2  0  0  0  0
  2  3  2  0  0  0  0
  3  4  1  0  0  0  0
  4  5  2  0  0  0  0
  5  6  1  0  0  0  0
  5 11  1  0  0  0  0
  6  7  1  0  0  0  0
  7  8  2  0  0  0  0
  8  9  1  0  0  0  0
  9 10  2  0  0  0  0
  9 11  1  0  0  0  0
  1 12  1  0  0  0  0
 13 14  1  0  0  0  0
 14 15  2  0  0  0  0
 14 16  1  0  0  0  0
 16 17  1  0  0  0  0
 17 18  1  0  0  0  0
 17 19  1  0  0  0  0
 17 20  1  0  0  0  0
 20 21  1  0  0  0  0
 20 22  1  0  0  0  0
  2 21  1  0  0  0  0
  3 22  1  0  0  0  0
 23 24  1  0  0  0  0
 24 25  1  0  0  0  0
 24 26  1  0  0  0  0
 24 29  1  0  0  0  0
 26 27  1  0  0  0  0
 26 28  1  0  0  0  0
  4 27  1  0  0  0  0
 30 31  1  0  0  0  0
 30 32  1  0  0  0  0
 30 33  1  0  0  0  0
 33 34  2  0  0  0  0
  8 30  1  0  0  0  0
  7 35  1  0  0  0  0
M  END
> <score_KierA2>
0.516791

$$$$
suggested molecule #687
 MOE2019            2D

 35 37  0  0  0  0  0  0  0  0999 V2000
    3.4992   -1.2833    0.0000 C   0  0  0  0  0  0  0  0  0  1  0  0
    4.9992   -1.2762    0.0000 C   0  0  0  0  0  0  0  0  0  2  0  0
    5.7430    0.0263    0.0000 C   0  0  0  0  0  0  0  0  0  3  0  0
    4.9869    1.3218    0.0000 C   0  0  0  0  0  0  0  0  0  4  0  0
    3.4870    1.3147    0.0000 C   0  0  0  0  0  0  0  0  0  5  0  0
    2.7431    0.0122    0.0000 C   0  0  0  0  0  0  0  0  0  6  0  0
    1.2431    0.0051    0.0000 C   0  0  0  0  0  0  0  0  0  7  0  0
    0.4870    1.3006    0.0000 C   0  0  0  0  0  0  0  0  0  8  0  0
    1.2309    2.6032    0.0000 C   0  0  0  0  0  0  0  0  0  9  0  0
    0.4748    3.8987    0.0000 O   0  0  0  0  0  0  0  0  0 10  0  0
    2.7309    2.6102    0.0000 O   0  0  0  0  0  0  0  0  0 11  0  0
    2.9041   -2.3253    0.0000 H   0  0  0  0  0  0  0  0  0  0  0  0
   11.2902   -5.5013    0.0000 C   0  0  0  0  0  0  0  0  0  0  0  0
    9.9877   -4.7574    0.0000 C   0  0  0  0  0  0  0  0  0  0  0  0
    8.6922   -5.5135    0.0000 O   0  0  0  0  0  0  0  0  0  0  0  0
    9.9806   -3.2575    0.0000 O   0  0  0  0  0  0  0  0  0  0  0  0
    8.6781   -2.5136    0.0000 C   0  0  0  0  0  0  0  0  0  0  0  0
    9.4220   -1.2110    0.0000 C   0  0  0  0  0  0  0  0  0  0  0  0
    7.9342   -3.8161    0.0000 C   0  0  0  0  0  0  0  0  0  0  0  0
    7.3755   -1.7697    0.0000 C   0  0  0  0  0  0  0  0  0  0  0  0
    6.0081   -2.3862    0.0000 C   0  0  0  0  0  0  0  0  0  0  0  0
    7.2117   -0.2787    0.0000 O   0  0  0  0  0  0  0  0  0  0  0  0
    8.7186    5.2365    0.0000 C   0  0  0  0  0  0  0  0  0  0  0  0
    7.9747    3.9340    0.0000 C   0  0  0  0  0  0  0  0  0  0  0  0
    6.6721    4.6778    0.0000 C   0  0  0  0  0  0  0  0  0  0  0  0
    7.2308    2.6314    0.0000 C   0  0  0  0  0  0  0  0  0  0  0  0
    5.7308    2.6244    0.0000 C   0  0  0  0  0  0  0  0  0  0  0  0
    7.9869    1.3359    0.0000 O   0  0  0  0  0  0  0  0  0  0  0  0
    9.2772    3.1901    0.0000 O   0  0  0  0  0  0  0  0  0  0  0  0
   -1.0130    1.2936    0.0000 C   0  0  0  0  0  0  0  0  0  0  0  0
   -1.0200    2.7936    0.0000 C   0  0  0  0  0  0  0  0  0  0  0  0
   -1.0059   -0.2064    0.0000 C   0  0  0  0  0  0  0  0  0  0  0  0
   -2.5130    1.2865    0.0000 C   0  0  0  0  0  0  0  0  0  0  0  0
   -3.2569   -0.0160    0.0000 C   0  0  0  0  0  0  0  0  0  0  0  0
    0.6480   -1.0369    0.0000 H   0  0  0  0  0  0  0  0  0  0  0  0
  1  2  1  0  0  0  0
  1  6  2  0  0  0  0
  2  3  2  0  0  0  0
  3  4  1  0  0  0  0
  4  5  2  0  0  0  0
  5  6  1  0  0  0  0
  5 11  1  0  0  0  0
  6  7  1  0  0  0  0
  7  8  2  0  0  0  0
  8  9  1  0  0  0  0
  9 10  2  0  0  0  0
  9 11  1  0  0  0  0
  1 12  1  0  0  0  0
 13 14  1  0  0  0  0
 14 15  2  0  0  0  0
 14 16  1  0  0  0  0
 16 17  1  0  0  0  0
 17 18  1  0  0  0  0
 17 19  1  0  0  0  0
 17 20  1  0  0  0  0
 20 21  1  0  0  0  0
 20 22  1  0  0  0  0
  2 21  1  0  0  0  0
  3 22  1  0  0  0  0
 23 24  1  0  0  0  0
 24 25  1  0  0  0  0
 24 26  1  0  0  0  0
 24 29  1  0  0  0  0
 26 27  1  0  0  0  0
 26 28  1  0  0  0  0
  4 27  1  0  0  0  0
 30 31  1  0  0  0  0
 30 32  1  0  0  0  0
 30 33  1  0  0  0  0
 33 34  2  0  0  0  0
  8 30  1  0  0  0  0
  7 35  1  0  0  0  0
M  END
> <score_KierFlex>
0.516267

$$$$
suggested molecule #688
 MOE2019            2D

 34 36  0  0  0  0  0  0  0  0999 V2000
    3.4992   -1.2833    0.0000 C   0  0  0  0  0  0  0  0  0  1  0  0
    4.9992   -1.2762    0.0000 C   0  0  0  0  0  0  0  0  0  2  0  0
    5.7430    0.0263    0.0000 C   0  0  0  0  0  0  0  0  0  3  0  0
    4.9869    1.3218    0.0000 C   0  0  0  0  0  0  0  0  0  4  0  0
    3.4870    1.3147    0.0000 C   0  0  0  0  0  0  0  0  0  5  0  0
    2.7431    0.0122    0.0000 C   0  0  0  0  0  0  0  0  0  6  0  0
    1.2431    0.0051    0.0000 C   0  0  0  0  0  0  0  0  0  7  0  0
    0.4870    1.3006    0.0000 C   0  0  0  0  0  0  0  0  0  8  0  0
    1.2309    2.6032    0.0000 C   0  0  0  0  0  0  0  0  0  9  0  0
    0.4748    3.8987    0.0000 O   0  0  0  0  0  0  0  0  0 10  0  0
    2.7309    2.6102    0.0000 O   0  0  0  0  0  0  0  0  0 11  0  0
    2.9041   -2.3253    0.0000 H   0  0  0  0  0  0  0  0  0  0  0  0
   10.1903   -5.1046    0.0000 C   0  0  0  0  0  0  0  0  0  0  0  0
    8.6903   -5.1116    0.0000 C   0  0  0  0  0  0  0  0  0  0  0  0
    7.9464   -6.4142    0.0000 O   0  0  0  0  0  0  0  0  0  0  0  0
    7.9342   -3.8161    0.0000 O   0  0  0  0  0  0  0  0  0  0  0  0
    8.6781   -2.5136    0.0000 C   0  0  0  0  0  0  0  0  0  0  0  0
    9.9806   -3.2575    0.0000 C   0  0  0  0  0  0  0  0  0  0  0  0
    9.4220   -1.2110    0.0000 C   0  0  0  0  0  0  0  0  0  0  0  0
    7.3755   -1.7697    0.0000 C   0  0  0  0  0  0  0  0  0  0  0  0
    6.0081   -2.3862    0.0000 C   0  0  0  0  0  0  0  0  0  0  0  0
    7.2117   -0.2787    0.0000 O   0  0  0  0  0  0  0  0  0  0  0  0
    7.9869    1.3359    0.0000 C   0  0  0  0  0  0  0  0  0  0  0  0
    7.2308    2.6314    0.0000 C   0  0  0  0  0  0  0  0  0  0  0  0
    5.7308    2.6244    0.0000 C   0  0  0  0  0  0  0  0  0  0  0  0
    4.9747    3.9198    0.0000 C   0  0  0  0  0  0  0  0  0  0  0  0
    5.7186    5.2224    0.0000 O   0  0  0  0  0  0  0  0  0  0  0  0
    7.9747    3.9340    0.0000 C   0  0  0  0  0  0  0  0  0  0  0  0
   -1.0130    1.2936    0.0000 C   0  0  0  0  0  0  0  0  0  0  0  0
   -1.0200    2.7936    0.0000 C   0  0  0  0  0  0  0  0  0  0  0  0
   -1.0059   -0.2064    0.0000 C   0  0  0  0  0  0  0  0  0  0  0  0
   -2.5130    1.2865    0.0000 C   0  0  0  0  0  0  0  0  0  0  0  0
   -3.2569   -0.0160    0.0000 C   0  0  0  0  0  0  0  0  0  0  0  0
    0.6480   -1.0369    0.0000 H   0  0  0  0  0  0  0  0  0  0  0  0
  1  2  2  0  0  0  0
  1  6  1  0  0  0  0
  2  3  1  0  0  0  0
  3  4  2  0  0  0  0
  4  5  1  0  0  0  0
  5  6  2  0  0  0  0
  5 11  1  0  0  0  0
  6  7  1  0  0  0  0
  7  8  2  0  0  0  0
  8  9  1  0  0  0  0
  9 10  2  0  0  0  0
  9 11  1  0  0  0  0
  1 12  1  0  0  0  0
 13 14  1  0  0  0  0
 14 15  2  0  0  0  0
 14 16  1  0  0  0  0
 16 17  1  0  0  0  0
 17 18  1  0  0  0  0
 17 19  1  0  0  0  0
 17 20  1  0  0  0  0
 20 21  1  0  0  0  0
 20 22  1  0  0  0  0
  2 21  1  0  0  0  0
  3 22  1  0  0  0  0
 23 24  1  0  0  0  0
 24 25  2  0  0  0  0
 24 28  1  0  0  0  0
 25 26  1  0  0  0  0
 26 27  2  0  0  0  0
  4 25  1  0  0  0  0
 29 30  1  0  0  0  0
 29 31  1  0  0  0  0
 29 32  1  0  0  0  0
 32 33  2  0  0  0  0
  8 29  1  0  0  0  0
  7 34  1  0  0  0  0
M  END
> <score_Kier1>
0.517778

$$$$
suggested molecule #689
 MOE2019            2D

 34 36  0  0  0  0  0  0  0  0999 V2000
    3.4992   -1.2833    0.0000 C   0  0  0  0  0  0  0  0  0  1  0  0
    4.9992   -1.2762    0.0000 C   0  0  0  0  0  0  0  0  0  2  0  0
    5.7430    0.0263    0.0000 C   0  0  0  0  0  0  0  0  0  3  0  0
    4.9869    1.3218    0.0000 C   0  0  0  0  0  0  0  0  0  4  0  0
    3.4870    1.3147    0.0000 C   0  0  0  0  0  0  0  0  0  5  0  0
    2.7431    0.0122    0.0000 C   0  0  0  0  0  0  0  0  0  6  0  0
    1.2431    0.0051    0.0000 C   0  0  0  0  0  0  0  0  0  7  0  0
    0.4870    1.3006    0.0000 C   0  0  0  0  0  0  0  0  0  8  0  0
    1.2309    2.6032    0.0000 C   0  0  0  0  0  0  0  0  0  9  0  0
    0.4748    3.8987    0.0000 O   0  0  0  0  0  0  0  0  0 10  0  0
    2.7309    2.6102    0.0000 O   0  0  0  0  0  0  0  0  0 11  0  0
    2.9041   -2.3253    0.0000 H   0  0  0  0  0  0  0  0  0  0  0  0
   10.1903   -5.1046    0.0000 C   0  0  0  0  0  0  0  0  0  0  0  0
    8.6903   -5.1116    0.0000 C   0  0  0  0  0  0  0  0  0  0  0  0
    7.9464   -6.4142    0.0000 O   0  0  0  0  0  0  0  0  0  0  0  0
    7.9342   -3.8161    0.0000 O   0  0  0  0  0  0  0  0  0  0  0  0
    8.6781   -2.5136    0.0000 C   0  0  0  0  0  0  0  0  0  0  0  0
    9.9806   -3.2575    0.0000 C   0  0  0  0  0  0  0  0  0  0  0  0
    9.4220   -1.2110    0.0000 C   0  0  0  0  0  0  0  0  0  0  0  0
    7.3755   -1.7697    0.0000 C   0  0  0  0  0  0  0  0  0  0  0  0
    6.0081   -2.3862    0.0000 C   0  0  0  0  0  0  0  0  0  0  0  0
    7.2117   -0.2787    0.0000 O   0  0  0  0  0  0  0  0  0  0  0  0
    7.9869    1.3359    0.0000 C   0  0  0  0  0  0  0  0  0  0  0  0
    7.2308    2.6314    0.0000 C   0  0  0  0  0  0  0  0  0  0  0  0
    5.7308    2.6244    0.0000 C   0  0  0  0  0  0  0  0  0  0  0  0
    4.9747    3.9198    0.0000 C   0  0  0  0  0  0  0  0  0  0  0  0
    5.7186    5.2224    0.0000 O   0  0  0  0  0  0  0  0  0  0  0  0
    7.9747    3.9340    0.0000 C   0  0  0  0  0  0  0  0  0  0  0  0
   -1.0130    1.2936    0.0000 C   0  0  0  0  0  0  0  0  0  0  0  0
   -1.0200    2.7936    0.0000 C   0  0  0  0  0  0  0  0  0  0  0  0
   -1.0059   -0.2064    0.0000 C   0  0  0  0  0  0  0  0  0  0  0  0
   -2.5130    1.2865    0.0000 C   0  0  0  0  0  0  0  0  0  0  0  0
   -3.2569   -0.0160    0.0000 C   0  0  0  0  0  0  0  0  0  0  0  0
    0.6480   -1.0369    0.0000 H   0  0  0  0  0  0  0  0  0  0  0  0
  1  2  2  0  0  0  0
  1  6  1  0  0  0  0
  2  3  1  0  0  0  0
  3  4  2  0  0  0  0
  4  5  1  0  0  0  0
  5  6  2  0  0  0  0
  5 11  1  0  0  0  0
  6  7  1  0  0  0  0
  7  8  2  0  0  0  0
  8  9  1  0  0  0  0
  9 10  2  0  0  0  0
  9 11  1  0  0  0  0
  1 12  1  0  0  0  0
 13 14  1  0  0  0  0
 14 15  2  0  0  0  0
 14 16  1  0  0  0  0
 16 17  1  0  0  0  0
 17 18  1  0  0  0  0
 17 19  1  0  0  0  0
 17 20  1  0  0  0  0
 20 21  1  0  0  0  0
 20 22  1  0  0  0  0
  2 21  1  0  0  0  0
  3 22  1  0  0  0  0
 23 24  1  0  0  0  0
 24 25  2  0  0  0  0
 24 28  1  0  0  0  0
 25 26  1  0  0  0  0
 26 27  2  0  0  0  0
  4 25  1  0  0  0  0
 29 30  1  0  0  0  0
 29 31  1  0  0  0  0
 29 32  1  0  0  0  0
 32 33  2  0  0  0  0
  8 29  1  0  0  0  0
  7 34  1  0  0  0  0
M  END
> <score_Kier2>
0.516536

$$$$
suggested molecule #690
 MOE2019            2D

 34 36  0  0  0  0  0  0  0  0999 V2000
    3.4992   -1.2833    0.0000 C   0  0  0  0  0  0  0  0  0  1  0  0
    4.9992   -1.2762    0.0000 C   0  0  0  0  0  0  0  0  0  2  0  0
    5.7430    0.0263    0.0000 C   0  0  0  0  0  0  0  0  0  3  0  0
    4.9869    1.3218    0.0000 C   0  0  0  0  0  0  0  0  0  4  0  0
    3.4870    1.3147    0.0000 C   0  0  0  0  0  0  0  0  0  5  0  0
    2.7431    0.0122    0.0000 C   0  0  0  0  0  0  0  0  0  6  0  0
    1.2431    0.0051    0.0000 C   0  0  0  0  0  0  0  0  0  7  0  0
    0.4870    1.3006    0.0000 C   0  0  0  0  0  0  0  0  0  8  0  0
    1.2309    2.6032    0.0000 C   0  0  0  0  0  0  0  0  0  9  0  0
    0.4748    3.8987    0.0000 O   0  0  0  0  0  0  0  0  0 10  0  0
    2.7309    2.6102    0.0000 O   0  0  0  0  0  0  0  0  0 11  0  0
    2.9041   -2.3253    0.0000 H   0  0  0  0  0  0  0  0  0  0  0  0
   10.1903   -5.1046    0.0000 C   0  0  0  0  0  0  0  0  0  0  0  0
    8.6903   -5.1116    0.0000 C   0  0  0  0  0  0  0  0  0  0  0  0
    7.9464   -6.4142    0.0000 O   0  0  0  0  0  0  0  0  0  0  0  0
    7.9342   -3.8161    0.0000 O   0  0  0  0  0  0  0  0  0  0  0  0
    8.6781   -2.5136    0.0000 C   0  0  0  0  0  0  0  0  0  0  0  0
    9.9806   -3.2575    0.0000 C   0  0  0  0  0  0  0  0  0  0  0  0
    9.4220   -1.2110    0.0000 C   0  0  0  0  0  0  0  0  0  0  0  0
    7.3755   -1.7697    0.0000 C   0  0  0  0  0  0  0  0  0  0  0  0
    6.0081   -2.3862    0.0000 C   0  0  0  0  0  0  0  0  0  0  0  0
    7.2117   -0.2787    0.0000 O   0  0  0  0  0  0  0  0  0  0  0  0
    7.9869    1.3359    0.0000 C   0  0  0  0  0  0  0  0  0  0  0  0
    7.2308    2.6314    0.0000 C   0  0  0  0  0  0  0  0  0  0  0  0
    5.7308    2.6244    0.0000 C   0  0  0  0  0  0  0  0  0  0  0  0
    4.9747    3.9198    0.0000 C   0  0  0  0  0  0  0  0  0  0  0  0
    5.7186    5.2224    0.0000 O   0  0  0  0  0  0  0  0  0  0  0  0
    7.9747    3.9340    0.0000 C   0  0  0  0  0  0  0  0  0  0  0  0
   -1.0130    1.2936    0.0000 C   0  0  0  0  0  0  0  0  0  0  0  0
   -1.0200    2.7936    0.0000 C   0  0  0  0  0  0  0  0  0  0  0  0
   -1.0059   -0.2064    0.0000 C   0  0  0  0  0  0  0  0  0  0  0  0
   -2.5130    1.2865    0.0000 C   0  0  0  0  0  0  0  0  0  0  0  0
   -3.2569   -0.0160    0.0000 C   0  0  0  0  0  0  0  0  0  0  0  0
    0.6480   -1.0369    0.0000 H   0  0  0  0  0  0  0  0  0  0  0  0
  1  2  2  0  0  0  0
  1  6  1  0  0  0  0
  2  3  1  0  0  0  0
  3  4  2  0  0  0  0
  4  5  1  0  0  0  0
  5  6  2  0  0  0  0
  5 11  1  0  0  0  0
  6  7  1  0  0  0  0
  7  8  2  0  0  0  0
  8  9  1  0  0  0  0
  9 10  2  0  0  0  0
  9 11  1  0  0  0  0
  1 12  1  0  0  0  0
 13 14  1  0  0  0  0
 14 15  2  0  0  0  0
 14 16  1  0  0  0  0
 16 17  1  0  0  0  0
 17 18  1  0  0  0  0
 17 19  1  0  0  0  0
 17 20  1  0  0  0  0
 20 21  1  0  0  0  0
 20 22  1  0  0  0  0
  2 21  1  0  0  0  0
  3 22  1  0  0  0  0
 23 24  1  0  0  0  0
 24 25  2  0  0  0  0
 24 28  1  0  0  0  0
 25 26  1  0  0  0  0
 26 27  2  0  0  0  0
  4 25  1  0  0  0  0
 29 30  1  0  0  0  0
 29 31  1  0  0  0  0
 29 32  1  0  0  0  0
 32 33  2  0  0  0  0
  8 29  1  0  0  0  0
  7 34  1  0  0  0  0
M  END
> <score_KierA1>
0.517638

$$$$
suggested molecule #691
 MOE2019            2D

 34 36  0  0  0  0  0  0  0  0999 V2000
    3.4992   -1.2833    0.0000 C   0  0  0  0  0  0  0  0  0  1  0  0
    4.9992   -1.2762    0.0000 C   0  0  0  0  0  0  0  0  0  2  0  0
    5.7430    0.0263    0.0000 C   0  0  0  0  0  0  0  0  0  3  0  0
    4.9869    1.3218    0.0000 C   0  0  0  0  0  0  0  0  0  4  0  0
    3.4870    1.3147    0.0000 C   0  0  0  0  0  0  0  0  0  5  0  0
    2.7431    0.0122    0.0000 C   0  0  0  0  0  0  0  0  0  6  0  0
    1.2431    0.0051    0.0000 C   0  0  0  0  0  0  0  0  0  7  0  0
    0.4870    1.3006    0.0000 C   0  0  0  0  0  0  0  0  0  8  0  0
    1.2309    2.6032    0.0000 C   0  0  0  0  0  0  0  0  0  9  0  0
    0.4748    3.8987    0.0000 O   0  0  0  0  0  0  0  0  0 10  0  0
    2.7309    2.6102    0.0000 O   0  0  0  0  0  0  0  0  0 11  0  0
    2.9041   -2.3253    0.0000 H   0  0  0  0  0  0  0  0  0  0  0  0
   10.1903   -5.1046    0.0000 C   0  0  0  0  0  0  0  0  0  0  0  0
    8.6903   -5.1116    0.0000 C   0  0  0  0  0  0  0  0  0  0  0  0
    7.9464   -6.4142    0.0000 O   0  0  0  0  0  0  0  0  0  0  0  0
    7.9342   -3.8161    0.0000 O   0  0  0  0  0  0  0  0  0  0  0  0
    8.6781   -2.5136    0.0000 C   0  0  0  0  0  0  0  0  0  0  0  0
    9.9806   -3.2575    0.0000 C   0  0  0  0  0  0  0  0  0  0  0  0
    9.4220   -1.2110    0.0000 C   0  0  0  0  0  0  0  0  0  0  0  0
    7.3755   -1.7697    0.0000 C   0  0  0  0  0  0  0  0  0  0  0  0
    6.0081   -2.3862    0.0000 C   0  0  0  0  0  0  0  0  0  0  0  0
    7.2117   -0.2787    0.0000 O   0  0  0  0  0  0  0  0  0  0  0  0
    7.9869    1.3359    0.0000 C   0  0  0  0  0  0  0  0  0  0  0  0
    7.2308    2.6314    0.0000 C   0  0  0  0  0  0  0  0  0  0  0  0
    5.7308    2.6244    0.0000 C   0  0  0  0  0  0  0  0  0  0  0  0
    4.9747    3.9198    0.0000 C   0  0  0  0  0  0  0  0  0  0  0  0
    5.7186    5.2224    0.0000 O   0  0  0  0  0  0  0  0  0  0  0  0
    7.9747    3.9340    0.0000 C   0  0  0  0  0  0  0  0  0  0  0  0
   -1.0130    1.2936    0.0000 C   0  0  0  0  0  0  0  0  0  0  0  0
   -1.0200    2.7936    0.0000 C   0  0  0  0  0  0  0  0  0  0  0  0
   -1.0059   -0.2064    0.0000 C   0  0  0  0  0  0  0  0  0  0  0  0
   -2.5130    1.2865    0.0000 C   0  0  0  0  0  0  0  0  0  0  0  0
   -3.2569   -0.0160    0.0000 C   0  0  0  0  0  0  0  0  0  0  0  0
    0.6480   -1.0369    0.0000 H   0  0  0  0  0  0  0  0  0  0  0  0
  1  2  2  0  0  0  0
  1  6  1  0  0  0  0
  2  3  1  0  0  0  0
  3  4  2  0  0  0  0
  4  5  1  0  0  0  0
  5  6  2  0  0  0  0
  5 11  1  0  0  0  0
  6  7  1  0  0  0  0
  7  8  2  0  0  0  0
  8  9  1  0  0  0  0
  9 10  2  0  0  0  0
  9 11  1  0  0  0  0
  1 12  1  0  0  0  0
 13 14  1  0  0  0  0
 14 15  2  0  0  0  0
 14 16  1  0  0  0  0
 16 17  1  0  0  0  0
 17 18  1  0  0  0  0
 17 19  1  0  0  0  0
 17 20  1  0  0  0  0
 20 21  1  0  0  0  0
 20 22  1  0  0  0  0
  2 21  1  0  0  0  0
  3 22  1  0  0  0  0
 23 24  1  0  0  0  0
 24 25  2  0  0  0  0
 24 28  1  0  0  0  0
 25 26  1  0  0  0  0
 26 27  2  0  0  0  0
  4 25  1  0  0  0  0
 29 30  1  0  0  0  0
 29 31  1  0  0  0  0
 29 32  1  0  0  0  0
 32 33  2  0  0  0  0
  8 29  1  0  0  0  0
  7 34  1  0  0  0  0
M  END
> <score_KierA2>
0.516759

$$$$
suggested molecule #692
 MOE2019            2D

 36 38  0  0  0  0  0  0  0  0999 V2000
    3.4992   -1.2833    0.0000 C   0  0  0  0  0  0  0  0  0  1  0  0
    4.9992   -1.2762    0.0000 C   0  0  0  0  0  0  0  0  0  2  0  0
    5.7430    0.0263    0.0000 C   0  0  0  0  0  0  0  0  0  3  0  0
    4.9869    1.3218    0.0000 C   0  0  0  0  0  0  0  0  0  4  0  0
    3.4870    1.3147    0.0000 C   0  0  0  0  0  0  0  0  0  5  0  0
    2.7431    0.0122    0.0000 C   0  0  0  0  0  0  0  0  0  6  0  0
    1.2431    0.0051    0.0000 C   0  0  0  0  0  0  0  0  0  7  0  0
    0.4870    1.3006    0.0000 C   0  0  0  0  0  0  0  0  0  8  0  0
    1.2309    2.6032    0.0000 C   0  0  0  0  0  0  0  0  0  9  0  0
    0.4748    3.8987    0.0000 O   0  0  0  0  0  0  0  0  0 10  0  0
    2.7309    2.6102    0.0000 O   0  0  0  0  0  0  0  0  0 11  0  0
    2.9041   -2.3253    0.0000 H   0  0  0  0  0  0  0  0  0  0  0  0
   10.1903   -5.1046    0.0000 C   0  0  0  0  0  0  0  0  0  0  0  0
    8.6903   -5.1116    0.0000 C   0  0  0  0  0  0  0  0  0  0  0  0
    7.9464   -6.4142    0.0000 O   0  0  0  0  0  0  0  0  0  0  0  0
    7.9342   -3.8161    0.0000 O   0  0  0  0  0  0  0  0  0  0  0  0
    8.6781   -2.5136    0.0000 C   0  0  0  0  0  0  0  0  0  0  0  0
    9.9806   -3.2575    0.0000 C   0  0  0  0  0  0  0  0  0  0  0  0
    9.4220   -1.2110    0.0000 C   0  0  0  0  0  0  0  0  0  0  0  0
    7.3755   -1.7697    0.0000 C   0  0  0  0  0  0  0  0  0  0  0  0
    6.0081   -2.3862    0.0000 C   0  0  0  0  0  0  0  0  0  0  0  0
    7.2117   -0.2787    0.0000 O   0  0  0  0  0  0  0  0  0  0  0  0
    9.2772    3.1901    0.0000 C   0  0  0  0  0  0  0  0  0  0  0  0
    7.9747    3.9340    0.0000 C   0  0  0  0  0  0  0  0  0  0  0  0
    6.6721    4.6778    0.0000 C   0  0  0  0  0  0  0  0  0  0  0  0
    7.2308    2.6314    0.0000 C   0  0  0  0  0  0  0  0  0  0  0  0
    5.7308    2.6244    0.0000 C   0  0  0  0  0  0  0  0  0  0  0  0
    7.9869    1.3359    0.0000 O   0  0  0  0  0  0  0  0  0  0  0  0
    8.7186    5.2365    0.0000 O   0  0  0  0  0  0  0  0  0  0  0  0
   10.2186    5.2436    0.0000 C   0  0  0  0  0  0  0  0  0  0  0  0
   -1.0130    1.2936    0.0000 C   0  0  0  0  0  0  0  0  0  0  0  0
   -1.0200    2.7936    0.0000 C   0  0  0  0  0  0  0  0  0  0  0  0
   -1.0059   -0.2064    0.0000 C   0  0  0  0  0  0  0  0  0  0  0  0
   -2.5130    1.2865    0.0000 C   0  0  0  0  0  0  0  0  0  0  0  0
   -3.2569   -0.0160    0.0000 C   0  0  0  0  0  0  0  0  0  0  0  0
    0.6480   -1.0369    0.0000 H   0  0  0  0  0  0  0  0  0  0  0  0
  1  2  1  0  0  0  0
  1  6  2  0  0  0  0
  2  3  2  0  0  0  0
  3  4  1  0  0  0  0
  4  5  2  0  0  0  0
  5  6  1  0  0  0  0
  5 11  1  0  0  0  0
  6  7  1  0  0  0  0
  7  8  2  0  0  0  0
  8  9  1  0  0  0  0
  9 10  2  0  0  0  0
  9 11  1  0  0  0  0
  1 12  1  0  0  0  0
 13 14  1  0  0  0  0
 14 15  2  0  0  0  0
 14 16  1  0  0  0  0
 16 17  1  0  0  0  0
 17 18  1  0  0  0  0
 17 19  1  0  0  0  0
 17 20  1  0  0  0  0
 20 21  1  0  0  0  0
 20 22  1  0  0  0  0
  2 21  1  0  0  0  0
  3 22  1  0  0  0  0
 23 24  1  0  0  0  0
 24 25  1  0  0  0  0
 24 26  1  0  0  0  0
 24 29  1  0  0  0  0
 26 27  1  0  0  0  0
 26 28  1  0  0  0  0
 29 30  1  0  0  0  0
  4 27  1  0  0  0  0
 31 32  1  0  0  0  0
 31 33  1  0  0  0  0
 31 34  1  0  0  0  0
 34 35  2  0  0  0  0
  8 31  1  0  0  0  0
  7 36  1  0  0  0  0
M  END
> <score_Kier1>
0.517762

$$$$
suggested molecule #693
 MOE2019            2D

 36 38  0  0  0  0  0  0  0  0999 V2000
    3.4992   -1.2833    0.0000 C   0  0  0  0  0  0  0  0  0  1  0  0
    4.9992   -1.2762    0.0000 C   0  0  0  0  0  0  0  0  0  2  0  0
    5.7430    0.0263    0.0000 C   0  0  0  0  0  0  0  0  0  3  0  0
    4.9869    1.3218    0.0000 C   0  0  0  0  0  0  0  0  0  4  0  0
    3.4870    1.3147    0.0000 C   0  0  0  0  0  0  0  0  0  5  0  0
    2.7431    0.0122    0.0000 C   0  0  0  0  0  0  0  0  0  6  0  0
    1.2431    0.0051    0.0000 C   0  0  0  0  0  0  0  0  0  7  0  0
    0.4870    1.3006    0.0000 C   0  0  0  0  0  0  0  0  0  8  0  0
    1.2309    2.6032    0.0000 C   0  0  0  0  0  0  0  0  0  9  0  0
    0.4748    3.8987    0.0000 O   0  0  0  0  0  0  0  0  0 10  0  0
    2.7309    2.6102    0.0000 O   0  0  0  0  0  0  0  0  0 11  0  0
    2.9041   -2.3253    0.0000 H   0  0  0  0  0  0  0  0  0  0  0  0
   10.1903   -5.1046    0.0000 C   0  0  0  0  0  0  0  0  0  0  0  0
    8.6903   -5.1116    0.0000 C   0  0  0  0  0  0  0  0  0  0  0  0
    7.9464   -6.4142    0.0000 O   0  0  0  0  0  0  0  0  0  0  0  0
    7.9342   -3.8161    0.0000 O   0  0  0  0  0  0  0  0  0  0  0  0
    8.6781   -2.5136    0.0000 C   0  0  0  0  0  0  0  0  0  0  0  0
    9.9806   -3.2575    0.0000 C   0  0  0  0  0  0  0  0  0  0  0  0
    9.4220   -1.2110    0.0000 C   0  0  0  0  0  0  0  0  0  0  0  0
    7.3755   -1.7697    0.0000 C   0  0  0  0  0  0  0  0  0  0  0  0
    6.0081   -2.3862    0.0000 C   0  0  0  0  0  0  0  0  0  0  0  0
    7.2117   -0.2787    0.0000 O   0  0  0  0  0  0  0  0  0  0  0  0
    9.2772    3.1901    0.0000 C   0  0  0  0  0  0  0  0  0  0  0  0
    7.9747    3.9340    0.0000 C   0  0  0  0  0  0  0  0  0  0  0  0
    6.6721    4.6778    0.0000 C   0  0  0  0  0  0  0  0  0  0  0  0
    7.2308    2.6314    0.0000 C   0  0  0  0  0  0  0  0  0  0  0  0
    5.7308    2.6244    0.0000 C   0  0  0  0  0  0  0  0  0  0  0  0
    7.9869    1.3359    0.0000 O   0  0  0  0  0  0  0  0  0  0  0  0
    8.7186    5.2365    0.0000 O   0  0  0  0  0  0  0  0  0  0  0  0
   10.2186    5.2436    0.0000 C   0  0  0  0  0  0  0  0  0  0  0  0
   -1.0130    1.2936    0.0000 C   0  0  0  0  0  0  0  0  0  0  0  0
   -1.0200    2.7936    0.0000 C   0  0  0  0  0  0  0  0  0  0  0  0
   -1.0059   -0.2064    0.0000 C   0  0  0  0  0  0  0  0  0  0  0  0
   -2.5130    1.2865    0.0000 C   0  0  0  0  0  0  0  0  0  0  0  0
   -3.2569   -0.0160    0.0000 C   0  0  0  0  0  0  0  0  0  0  0  0
    0.6480   -1.0369    0.0000 H   0  0  0  0  0  0  0  0  0  0  0  0
  1  2  1  0  0  0  0
  1  6  2  0  0  0  0
  2  3  2  0  0  0  0
  3  4  1  0  0  0  0
  4  5  2  0  0  0  0
  5  6  1  0  0  0  0
  5 11  1  0  0  0  0
  6  7  1  0  0  0  0
  7  8  2  0  0  0  0
  8  9  1  0  0  0  0
  9 10  2  0  0  0  0
  9 11  1  0  0  0  0
  1 12  1  0  0  0  0
 13 14  1  0  0  0  0
 14 15  2  0  0  0  0
 14 16  1  0  0  0  0
 16 17  1  0  0  0  0
 17 18  1  0  0  0  0
 17 19  1  0  0  0  0
 17 20  1  0  0  0  0
 20 21  1  0  0  0  0
 20 22  1  0  0  0  0
  2 21  1  0  0  0  0
  3 22  1  0  0  0  0
 23 24  1  0  0  0  0
 24 25  1  0  0  0  0
 24 26  1  0  0  0  0
 24 29  1  0  0  0  0
 26 27  1  0  0  0  0
 26 28  1  0  0  0  0
 29 30  1  0  0  0  0
  4 27  1  0  0  0  0
 31 32  1  0  0  0  0
 31 33  1  0  0  0  0
 31 34  1  0  0  0  0
 34 35  2  0  0  0  0
  8 31  1  0  0  0  0
  7 36  1  0  0  0  0
M  END
> <score_Kier2>
0.516529

$$$$
suggested molecule #694
 MOE2019            2D

 36 38  0  0  0  0  0  0  0  0999 V2000
    3.4992   -1.2833    0.0000 C   0  0  0  0  0  0  0  0  0  1  0  0
    4.9992   -1.2762    0.0000 C   0  0  0  0  0  0  0  0  0  2  0  0
    5.7430    0.0263    0.0000 C   0  0  0  0  0  0  0  0  0  3  0  0
    4.9869    1.3218    0.0000 C   0  0  0  0  0  0  0  0  0  4  0  0
    3.4870    1.3147    0.0000 C   0  0  0  0  0  0  0  0  0  5  0  0
    2.7431    0.0122    0.0000 C   0  0  0  0  0  0  0  0  0  6  0  0
    1.2431    0.0051    0.0000 C   0  0  0  0  0  0  0  0  0  7  0  0
    0.4870    1.3006    0.0000 C   0  0  0  0  0  0  0  0  0  8  0  0
    1.2309    2.6032    0.0000 C   0  0  0  0  0  0  0  0  0  9  0  0
    0.4748    3.8987    0.0000 O   0  0  0  0  0  0  0  0  0 10  0  0
    2.7309    2.6102    0.0000 O   0  0  0  0  0  0  0  0  0 11  0  0
    2.9041   -2.3253    0.0000 H   0  0  0  0  0  0  0  0  0  0  0  0
   10.1903   -5.1046    0.0000 C   0  0  0  0  0  0  0  0  0  0  0  0
    8.6903   -5.1116    0.0000 C   0  0  0  0  0  0  0  0  0  0  0  0
    7.9464   -6.4142    0.0000 O   0  0  0  0  0  0  0  0  0  0  0  0
    7.9342   -3.8161    0.0000 O   0  0  0  0  0  0  0  0  0  0  0  0
    8.6781   -2.5136    0.0000 C   0  0  0  0  0  0  0  0  0  0  0  0
    9.9806   -3.2575    0.0000 C   0  0  0  0  0  0  0  0  0  0  0  0
    9.4220   -1.2110    0.0000 C   0  0  0  0  0  0  0  0  0  0  0  0
    7.3755   -1.7697    0.0000 C   0  0  0  0  0  0  0  0  0  0  0  0
    6.0081   -2.3862    0.0000 C   0  0  0  0  0  0  0  0  0  0  0  0
    7.2117   -0.2787    0.0000 O   0  0  0  0  0  0  0  0  0  0  0  0
    9.2772    3.1901    0.0000 C   0  0  0  0  0  0  0  0  0  0  0  0
    7.9747    3.9340    0.0000 C   0  0  0  0  0  0  0  0  0  0  0  0
    6.6721    4.6778    0.0000 C   0  0  0  0  0  0  0  0  0  0  0  0
    7.2308    2.6314    0.0000 C   0  0  0  0  0  0  0  0  0  0  0  0
    5.7308    2.6244    0.0000 C   0  0  0  0  0  0  0  0  0  0  0  0
    7.9869    1.3359    0.0000 O   0  0  0  0  0  0  0  0  0  0  0  0
    8.7186    5.2365    0.0000 O   0  0  0  0  0  0  0  0  0  0  0  0
   10.2186    5.2436    0.0000 C   0  0  0  0  0  0  0  0  0  0  0  0
   -1.0130    1.2936    0.0000 C   0  0  0  0  0  0  0  0  0  0  0  0
   -1.0200    2.7936    0.0000 C   0  0  0  0  0  0  0  0  0  0  0  0
   -1.0059   -0.2064    0.0000 C   0  0  0  0  0  0  0  0  0  0  0  0
   -2.5130    1.2865    0.0000 C   0  0  0  0  0  0  0  0  0  0  0  0
   -3.2569   -0.0160    0.0000 C   0  0  0  0  0  0  0  0  0  0  0  0
    0.6480   -1.0369    0.0000 H   0  0  0  0  0  0  0  0  0  0  0  0
  1  2  1  0  0  0  0
  1  6  2  0  0  0  0
  2  3  2  0  0  0  0
  3  4  1  0  0  0  0
  4  5  2  0  0  0  0
  5  6  1  0  0  0  0
  5 11  1  0  0  0  0
  6  7  1  0  0  0  0
  7  8  2  0  0  0  0
  8  9  1  0  0  0  0
  9 10  2  0  0  0  0
  9 11  1  0  0  0  0
  1 12  1  0  0  0  0
 13 14  1  0  0  0  0
 14 15  2  0  0  0  0
 14 16  1  0  0  0  0
 16 17  1  0  0  0  0
 17 18  1  0  0  0  0
 17 19  1  0  0  0  0
 17 20  1  0  0  0  0
 20 21  1  0  0  0  0
 20 22  1  0  0  0  0
  2 21  1  0  0  0  0
  3 22  1  0  0  0  0
 23 24  1  0  0  0  0
 24 25  1  0  0  0  0
 24 26  1  0  0  0  0
 24 29  1  0  0  0  0
 26 27  1  0  0  0  0
 26 28  1  0  0  0  0
 29 30  1  0  0  0  0
  4 27  1  0  0  0  0
 31 32  1  0  0  0  0
 31 33  1  0  0  0  0
 31 34  1  0  0  0  0
 34 35  2  0  0  0  0
  8 31  1  0  0  0  0
  7 36  1  0  0  0  0
M  END
> <score_KierA1>
0.517607

$$$$
suggested molecule #695
 MOE2019            2D

 36 38  0  0  0  0  0  0  0  0999 V2000
    3.4992   -1.2833    0.0000 C   0  0  0  0  0  0  0  0  0  1  0  0
    4.9992   -1.2762    0.0000 C   0  0  0  0  0  0  0  0  0  2  0  0
    5.7430    0.0263    0.0000 C   0  0  0  0  0  0  0  0  0  3  0  0
    4.9869    1.3218    0.0000 C   0  0  0  0  0  0  0  0  0  4  0  0
    3.4870    1.3147    0.0000 C   0  0  0  0  0  0  0  0  0  5  0  0
    2.7431    0.0122    0.0000 C   0  0  0  0  0  0  0  0  0  6  0  0
    1.2431    0.0051    0.0000 C   0  0  0  0  0  0  0  0  0  7  0  0
    0.4870    1.3006    0.0000 C   0  0  0  0  0  0  0  0  0  8  0  0
    1.2309    2.6032    0.0000 C   0  0  0  0  0  0  0  0  0  9  0  0
    0.4748    3.8987    0.0000 O   0  0  0  0  0  0  0  0  0 10  0  0
    2.7309    2.6102    0.0000 O   0  0  0  0  0  0  0  0  0 11  0  0
    2.9041   -2.3253    0.0000 H   0  0  0  0  0  0  0  0  0  0  0  0
   10.1903   -5.1046    0.0000 C   0  0  0  0  0  0  0  0  0  0  0  0
    8.6903   -5.1116    0.0000 C   0  0  0  0  0  0  0  0  0  0  0  0
    7.9464   -6.4142    0.0000 O   0  0  0  0  0  0  0  0  0  0  0  0
    7.9342   -3.8161    0.0000 O   0  0  0  0  0  0  0  0  0  0  0  0
    8.6781   -2.5136    0.0000 C   0  0  0  0  0  0  0  0  0  0  0  0
    9.9806   -3.2575    0.0000 C   0  0  0  0  0  0  0  0  0  0  0  0
    9.4220   -1.2110    0.0000 C   0  0  0  0  0  0  0  0  0  0  0  0
    7.3755   -1.7697    0.0000 C   0  0  0  0  0  0  0  0  0  0  0  0
    6.0081   -2.3862    0.0000 C   0  0  0  0  0  0  0  0  0  0  0  0
    7.2117   -0.2787    0.0000 O   0  0  0  0  0  0  0  0  0  0  0  0
    9.2772    3.1901    0.0000 C   0  0  0  0  0  0  0  0  0  0  0  0
    7.9747    3.9340    0.0000 C   0  0  0  0  0  0  0  0  0  0  0  0
    6.6721    4.6778    0.0000 C   0  0  0  0  0  0  0  0  0  0  0  0
    7.2308    2.6314    0.0000 C   0  0  0  0  0  0  0  0  0  0  0  0
    5.7308    2.6244    0.0000 C   0  0  0  0  0  0  0  0  0  0  0  0
    7.9869    1.3359    0.0000 O   0  0  0  0  0  0  0  0  0  0  0  0
    8.7186    5.2365    0.0000 O   0  0  0  0  0  0  0  0  0  0  0  0
   10.2186    5.2436    0.0000 C   0  0  0  0  0  0  0  0  0  0  0  0
   -1.0130    1.2936    0.0000 C   0  0  0  0  0  0  0  0  0  0  0  0
   -1.0200    2.7936    0.0000 C   0  0  0  0  0  0  0  0  0  0  0  0
   -1.0059   -0.2064    0.0000 C   0  0  0  0  0  0  0  0  0  0  0  0
   -2.5130    1.2865    0.0000 C   0  0  0  0  0  0  0  0  0  0  0  0
   -3.2569   -0.0160    0.0000 C   0  0  0  0  0  0  0  0  0  0  0  0
    0.6480   -1.0369    0.0000 H   0  0  0  0  0  0  0  0  0  0  0  0
  1  2  1  0  0  0  0
  1  6  2  0  0  0  0
  2  3  2  0  0  0  0
  3  4  1  0  0  0  0
  4  5  2  0  0  0  0
  5  6  1  0  0  0  0
  5 11  1  0  0  0  0
  6  7  1  0  0  0  0
  7  8  2  0  0  0  0
  8  9  1  0  0  0  0
  9 10  2  0  0  0  0
  9 11  1  0  0  0  0
  1 12  1  0  0  0  0
 13 14  1  0  0  0  0
 14 15  2  0  0  0  0
 14 16  1  0  0  0  0
 16 17  1  0  0  0  0
 17 18  1  0  0  0  0
 17 19  1  0  0  0  0
 17 20  1  0  0  0  0
 20 21  1  0  0  0  0
 20 22  1  0  0  0  0
  2 21  1  0  0  0  0
  3 22  1  0  0  0  0
 23 24  1  0  0  0  0
 24 25  1  0  0  0  0
 24 26  1  0  0  0  0
 24 29  1  0  0  0  0
 26 27  1  0  0  0  0
 26 28  1  0  0  0  0
 29 30  1  0  0  0  0
  4 27  1  0  0  0  0
 31 32  1  0  0  0  0
 31 33  1  0  0  0  0
 31 34  1  0  0  0  0
 34 35  2  0  0  0  0
  8 31  1  0  0  0  0
  7 36  1  0  0  0  0
M  END
> <score_KierA2>
0.516737

$$$$
suggested molecule #696
 MOE2019            2D

 38 40  0  0  0  0  0  0  0  0999 V2000
    3.4992   -1.2833    0.0000 C   0  0  0  0  0  0  0  0  0  1  0  0
    4.9992   -1.2762    0.0000 C   0  0  0  0  0  0  0  0  0  2  0  0
    5.7430    0.0263    0.0000 C   0  0  0  0  0  0  0  0  0  3  0  0
    4.9869    1.3218    0.0000 C   0  0  0  0  0  0  0  0  0  4  0  0
    3.4870    1.3147    0.0000 C   0  0  0  0  0  0  0  0  0  5  0  0
    2.7431    0.0122    0.0000 C   0  0  0  0  0  0  0  0  0  6  0  0
    1.2431    0.0051    0.0000 C   0  0  0  0  0  0  0  0  0  7  0  0
    0.4870    1.3006    0.0000 C   0  0  0  0  0  0  0  0  0  8  0  0
    1.2309    2.6032    0.0000 C   0  0  0  0  0  0  0  0  0  9  0  0
    0.4748    3.8987    0.0000 O   0  0  0  0  0  0  0  0  0 10  0  0
    2.7309    2.6102    0.0000 O   0  0  0  0  0  0  0  0  0 11  0  0
    2.9041   -2.3253    0.0000 H   0  0  0  0  0  0  0  0  0  0  0  0
   10.1903   -5.1046    0.0000 C   0  0  0  0  0  0  0  0  0  0  0  0
    8.6903   -5.1116    0.0000 C   0  0  0  0  0  0  0  0  0  0  0  0
    7.9464   -6.4142    0.0000 O   0  0  0  0  0  0  0  0  0  0  0  0
    7.9342   -3.8161    0.0000 O   0  0  0  0  0  0  0  0  0  0  0  0
    8.6781   -2.5136    0.0000 C   0  0  0  0  0  0  0  0  0  0  0  0
    9.9806   -3.2575    0.0000 C   0  0  0  0  0  0  0  0  0  0  0  0
    9.4220   -1.2110    0.0000 C   0  0  0  0  0  0  0  0  0  0  0  0
    7.3755   -1.7697    0.0000 C   0  0  0  0  0  0  0  0  0  0  0  0
    6.0081   -2.3862    0.0000 C   0  0  0  0  0  0  0  0  0  0  0  0
    7.2117   -0.2787    0.0000 O   0  0  0  0  0  0  0  0  0  0  0  0
    9.4869    1.3430    0.0000 C   0  0  0  0  0  0  0  0  0  0  0  0
    7.9869    1.3359    0.0000 C   0  0  0  0  0  0  0  0  0  0  0  0
    7.2430    0.0334    0.0000 C   0  0  0  0  0  0  0  0  0  0  0  0
    7.2308    2.6314    0.0000 C   0  0  0  0  0  0  0  0  0  0  0  0
    7.9747    3.9340    0.0000 O   0  0  0  0  0  0  0  0  0  0  0  0
    5.7308    2.6244    0.0000 C   0  0  0  0  0  0  0  0  0  0  0  0
    4.9747    3.9198    0.0000 O   0  0  0  0  0  0  0  0  0  0  0  0
    5.7186    5.2224    0.0000 C   0  0  0  0  0  0  0  0  0  0  0  0
    7.2186    5.2295    0.0000 O   0  0  0  0  0  0  0  0  0  0  0  0
    4.9625    6.5179    0.0000 C   0  0  0  0  0  0  0  0  0  0  0  0
   -1.0130    1.2936    0.0000 C   0  0  0  0  0  0  0  0  0  0  0  0
   -1.0200    2.7936    0.0000 C   0  0  0  0  0  0  0  0  0  0  0  0
   -1.0059   -0.2064    0.0000 C   0  0  0  0  0  0  0  0  0  0  0  0
   -2.5130    1.2865    0.0000 C   0  0  0  0  0  0  0  0  0  0  0  0
   -3.2569   -0.0160    0.0000 C   0  0  0  0  0  0  0  0  0  0  0  0
    0.6480   -1.0369    0.0000 H   0  0  0  0  0  0  0  0  0  0  0  0
  1  2  1  0  0  0  0
  1  6  2  0  0  0  0
  2  3  2  0  0  0  0
  3  4  1  0  0  0  0
  4  5  2  0  0  0  0
  5  6  1  0  0  0  0
  5 11  1  0  0  0  0
  6  7  1  0  0  0  0
  7  8  2  0  0  0  0
  8  9  1  0  0  0  0
  9 10  2  0  0  0  0
  9 11  1  0  0  0  0
  1 12  1  0  0  0  0
 13 14  1  0  0  0  0
 14 15  2  0  0  0  0
 14 16  1  0  0  0  0
 16 17  1  0  0  0  0
 17 18  1  0  0  0  0
 17 19  1  0  0  0  0
 17 20  1  0  0  0  0
 20 21  1  0  0  0  0
 20 22  1  0  0  0  0
  2 21  1  0  0  0  0
  3 22  1  0  0  0  0
 23 24  1  0  0  0  0
 24 25  1  0  0  0  0
 24 26  1  0  0  0  0
 26 27  2  0  0  0  0
 26 28  1  0  0  0  0
 28 29  1  0  0  0  0
 29 30  1  0  0  0  0
 30 31  2  0  0  0  0
 30 32  1  0  0  0  0
  4 28  1  0  0  0  0
 33 34  1  0  0  0  0
 33 35  1  0  0  0  0
 33 36  1  0  0  0  0
 36 37  2  0  0  0  0
  8 33  1  0  0  0  0
  7 38  1  0  0  0  0
M  END
> <score_Kier1>
0.517748

$$$$
suggested molecule #697
 MOE2019            2D

 38 40  0  0  0  0  0  0  0  0999 V2000
    3.4992   -1.2833    0.0000 C   0  0  0  0  0  0  0  0  0  1  0  0
    4.9992   -1.2762    0.0000 C   0  0  0  0  0  0  0  0  0  2  0  0
    5.7430    0.0263    0.0000 C   0  0  0  0  0  0  0  0  0  3  0  0
    4.9869    1.3218    0.0000 C   0  0  0  0  0  0  0  0  0  4  0  0
    3.4870    1.3147    0.0000 C   0  0  0  0  0  0  0  0  0  5  0  0
    2.7431    0.0122    0.0000 C   0  0  0  0  0  0  0  0  0  6  0  0
    1.2431    0.0051    0.0000 C   0  0  0  0  0  0  0  0  0  7  0  0
    0.4870    1.3006    0.0000 C   0  0  0  0  0  0  0  0  0  8  0  0
    1.2309    2.6032    0.0000 C   0  0  0  0  0  0  0  0  0  9  0  0
    0.4748    3.8987    0.0000 O   0  0  0  0  0  0  0  0  0 10  0  0
    2.7309    2.6102    0.0000 O   0  0  0  0  0  0  0  0  0 11  0  0
    2.9041   -2.3253    0.0000 H   0  0  0  0  0  0  0  0  0  0  0  0
   10.1903   -5.1046    0.0000 C   0  0  0  0  0  0  0  0  0  0  0  0
    8.6903   -5.1116    0.0000 C   0  0  0  0  0  0  0  0  0  0  0  0
    7.9464   -6.4142    0.0000 O   0  0  0  0  0  0  0  0  0  0  0  0
    7.9342   -3.8161    0.0000 O   0  0  0  0  0  0  0  0  0  0  0  0
    8.6781   -2.5136    0.0000 C   0  0  0  0  0  0  0  0  0  0  0  0
    9.9806   -3.2575    0.0000 C   0  0  0  0  0  0  0  0  0  0  0  0
    9.4220   -1.2110    0.0000 C   0  0  0  0  0  0  0  0  0  0  0  0
    7.3755   -1.7697    0.0000 C   0  0  0  0  0  0  0  0  0  0  0  0
    6.0081   -2.3862    0.0000 C   0  0  0  0  0  0  0  0  0  0  0  0
    7.2117   -0.2787    0.0000 O   0  0  0  0  0  0  0  0  0  0  0  0
    9.4869    1.3430    0.0000 C   0  0  0  0  0  0  0  0  0  0  0  0
    7.9869    1.3359    0.0000 C   0  0  0  0  0  0  0  0  0  0  0  0
    7.2430    0.0334    0.0000 C   0  0  0  0  0  0  0  0  0  0  0  0
    7.2308    2.6314    0.0000 C   0  0  0  0  0  0  0  0  0  0  0  0
    7.9747    3.9340    0.0000 O   0  0  0  0  0  0  0  0  0  0  0  0
    5.7308    2.6244    0.0000 C   0  0  0  0  0  0  0  0  0  0  0  0
    4.9747    3.9198    0.0000 O   0  0  0  0  0  0  0  0  0  0  0  0
    5.7186    5.2224    0.0000 C   0  0  0  0  0  0  0  0  0  0  0  0
    7.2186    5.2295    0.0000 O   0  0  0  0  0  0  0  0  0  0  0  0
    4.9625    6.5179    0.0000 C   0  0  0  0  0  0  0  0  0  0  0  0
   -1.0130    1.2936    0.0000 C   0  0  0  0  0  0  0  0  0  0  0  0
   -1.0200    2.7936    0.0000 C   0  0  0  0  0  0  0  0  0  0  0  0
   -1.0059   -0.2064    0.0000 C   0  0  0  0  0  0  0  0  0  0  0  0
   -2.5130    1.2865    0.0000 C   0  0  0  0  0  0  0  0  0  0  0  0
   -3.2569   -0.0160    0.0000 C   0  0  0  0  0  0  0  0  0  0  0  0
    0.6480   -1.0369    0.0000 H   0  0  0  0  0  0  0  0  0  0  0  0
  1  2  1  0  0  0  0
  1  6  2  0  0  0  0
  2  3  2  0  0  0  0
  3  4  1  0  0  0  0
  4  5  2  0  0  0  0
  5  6  1  0  0  0  0
  5 11  1  0  0  0  0
  6  7  1  0  0  0  0
  7  8  2  0  0  0  0
  8  9  1  0  0  0  0
  9 10  2  0  0  0  0
  9 11  1  0  0  0  0
  1 12  1  0  0  0  0
 13 14  1  0  0  0  0
 14 15  2  0  0  0  0
 14 16  1  0  0  0  0
 16 17  1  0  0  0  0
 17 18  1  0  0  0  0
 17 19  1  0  0  0  0
 17 20  1  0  0  0  0
 20 21  1  0  0  0  0
 20 22  1  0  0  0  0
  2 21  1  0  0  0  0
  3 22  1  0  0  0  0
 23 24  1  0  0  0  0
 24 25  1  0  0  0  0
 24 26  1  0  0  0  0
 26 27  2  0  0  0  0
 26 28  1  0  0  0  0
 28 29  1  0  0  0  0
 29 30  1  0  0  0  0
 30 31  2  0  0  0  0
 30 32  1  0  0  0  0
  4 28  1  0  0  0  0
 33 34  1  0  0  0  0
 33 35  1  0  0  0  0
 33 36  1  0  0  0  0
 36 37  2  0  0  0  0
  8 33  1  0  0  0  0
  7 38  1  0  0  0  0
M  END
> <score_Kier2>
0.516509

$$$$
suggested molecule #698
 MOE2019            2D

 38 40  0  0  0  0  0  0  0  0999 V2000
    3.4992   -1.2833    0.0000 C   0  0  0  0  0  0  0  0  0  1  0  0
    4.9992   -1.2762    0.0000 C   0  0  0  0  0  0  0  0  0  2  0  0
    5.7430    0.0263    0.0000 C   0  0  0  0  0  0  0  0  0  3  0  0
    4.9869    1.3218    0.0000 C   0  0  0  0  0  0  0  0  0  4  0  0
    3.4870    1.3147    0.0000 C   0  0  0  0  0  0  0  0  0  5  0  0
    2.7431    0.0122    0.0000 C   0  0  0  0  0  0  0  0  0  6  0  0
    1.2431    0.0051    0.0000 C   0  0  0  0  0  0  0  0  0  7  0  0
    0.4870    1.3006    0.0000 C   0  0  0  0  0  0  0  0  0  8  0  0
    1.2309    2.6032    0.0000 C   0  0  0  0  0  0  0  0  0  9  0  0
    0.4748    3.8987    0.0000 O   0  0  0  0  0  0  0  0  0 10  0  0
    2.7309    2.6102    0.0000 O   0  0  0  0  0  0  0  0  0 11  0  0
    2.9041   -2.3253    0.0000 H   0  0  0  0  0  0  0  0  0  0  0  0
   10.1903   -5.1046    0.0000 C   0  0  0  0  0  0  0  0  0  0  0  0
    8.6903   -5.1116    0.0000 C   0  0  0  0  0  0  0  0  0  0  0  0
    7.9464   -6.4142    0.0000 O   0  0  0  0  0  0  0  0  0  0  0  0
    7.9342   -3.8161    0.0000 O   0  0  0  0  0  0  0  0  0  0  0  0
    8.6781   -2.5136    0.0000 C   0  0  0  0  0  0  0  0  0  0  0  0
    9.9806   -3.2575    0.0000 C   0  0  0  0  0  0  0  0  0  0  0  0
    9.4220   -1.2110    0.0000 C   0  0  0  0  0  0  0  0  0  0  0  0
    7.3755   -1.7697    0.0000 C   0  0  0  0  0  0  0  0  0  0  0  0
    6.0081   -2.3862    0.0000 C   0  0  0  0  0  0  0  0  0  0  0  0
    7.2117   -0.2787    0.0000 O   0  0  0  0  0  0  0  0  0  0  0  0
    9.4869    1.3430    0.0000 C   0  0  0  0  0  0  0  0  0  0  0  0
    7.9869    1.3359    0.0000 C   0  0  0  0  0  0  0  0  0  0  0  0
    7.2430    0.0334    0.0000 C   0  0  0  0  0  0  0  0  0  0  0  0
    7.2308    2.6314    0.0000 C   0  0  0  0  0  0  0  0  0  0  0  0
    7.9747    3.9340    0.0000 O   0  0  0  0  0  0  0  0  0  0  0  0
    5.7308    2.6244    0.0000 C   0  0  0  0  0  0  0  0  0  0  0  0
    4.9747    3.9198    0.0000 O   0  0  0  0  0  0  0  0  0  0  0  0
    5.7186    5.2224    0.0000 C   0  0  0  0  0  0  0  0  0  0  0  0
    7.2186    5.2295    0.0000 O   0  0  0  0  0  0  0  0  0  0  0  0
    4.9625    6.5179    0.0000 C   0  0  0  0  0  0  0  0  0  0  0  0
   -1.0130    1.2936    0.0000 C   0  0  0  0  0  0  0  0  0  0  0  0
   -1.0200    2.7936    0.0000 C   0  0  0  0  0  0  0  0  0  0  0  0
   -1.0059   -0.2064    0.0000 C   0  0  0  0  0  0  0  0  0  0  0  0
   -2.5130    1.2865    0.0000 C   0  0  0  0  0  0  0  0  0  0  0  0
   -3.2569   -0.0160    0.0000 C   0  0  0  0  0  0  0  0  0  0  0  0
    0.6480   -1.0369    0.0000 H   0  0  0  0  0  0  0  0  0  0  0  0
  1  2  1  0  0  0  0
  1  6  2  0  0  0  0
  2  3  2  0  0  0  0
  3  4  1  0  0  0  0
  4  5  2  0  0  0  0
  5  6  1  0  0  0  0
  5 11  1  0  0  0  0
  6  7  1  0  0  0  0
  7  8  2  0  0  0  0
  8  9  1  0  0  0  0
  9 10  2  0  0  0  0
  9 11  1  0  0  0  0
  1 12  1  0  0  0  0
 13 14  1  0  0  0  0
 14 15  2  0  0  0  0
 14 16  1  0  0  0  0
 16 17  1  0  0  0  0
 17 18  1  0  0  0  0
 17 19  1  0  0  0  0
 17 20  1  0  0  0  0
 20 21  1  0  0  0  0
 20 22  1  0  0  0  0
  2 21  1  0  0  0  0
  3 22  1  0  0  0  0
 23 24  1  0  0  0  0
 24 25  1  0  0  0  0
 24 26  1  0  0  0  0
 26 27  2  0  0  0  0
 26 28  1  0  0  0  0
 28 29  1  0  0  0  0
 29 30  1  0  0  0  0
 30 31  2  0  0  0  0
 30 32  1  0  0  0  0
  4 28  1  0  0  0  0
 33 34  1  0  0  0  0
 33 35  1  0  0  0  0
 33 36  1  0  0  0  0
 36 37  2  0  0  0  0
  8 33  1  0  0  0  0
  7 38  1  0  0  0  0
M  END
> <score_KierA1>
0.517602

$$$$
suggested molecule #699
 MOE2019            2D

 38 40  0  0  0  0  0  0  0  0999 V2000
    3.4992   -1.2833    0.0000 C   0  0  0  0  0  0  0  0  0  1  0  0
    4.9992   -1.2762    0.0000 C   0  0  0  0  0  0  0  0  0  2  0  0
    5.7430    0.0263    0.0000 C   0  0  0  0  0  0  0  0  0  3  0  0
    4.9869    1.3218    0.0000 C   0  0  0  0  0  0  0  0  0  4  0  0
    3.4870    1.3147    0.0000 C   0  0  0  0  0  0  0  0  0  5  0  0
    2.7431    0.0122    0.0000 C   0  0  0  0  0  0  0  0  0  6  0  0
    1.2431    0.0051    0.0000 C   0  0  0  0  0  0  0  0  0  7  0  0
    0.4870    1.3006    0.0000 C   0  0  0  0  0  0  0  0  0  8  0  0
    1.2309    2.6032    0.0000 C   0  0  0  0  0  0  0  0  0  9  0  0
    0.4748    3.8987    0.0000 O   0  0  0  0  0  0  0  0  0 10  0  0
    2.7309    2.6102    0.0000 O   0  0  0  0  0  0  0  0  0 11  0  0
    2.9041   -2.3253    0.0000 H   0  0  0  0  0  0  0  0  0  0  0  0
   10.1903   -5.1046    0.0000 C   0  0  0  0  0  0  0  0  0  0  0  0
    8.6903   -5.1116    0.0000 C   0  0  0  0  0  0  0  0  0  0  0  0
    7.9464   -6.4142    0.0000 O   0  0  0  0  0  0  0  0  0  0  0  0
    7.9342   -3.8161    0.0000 O   0  0  0  0  0  0  0  0  0  0  0  0
    8.6781   -2.5136    0.0000 C   0  0  0  0  0  0  0  0  0  0  0  0
    9.9806   -3.2575    0.0000 C   0  0  0  0  0  0  0  0  0  0  0  0
    9.4220   -1.2110    0.0000 C   0  0  0  0  0  0  0  0  0  0  0  0
    7.3755   -1.7697    0.0000 C   0  0  0  0  0  0  0  0  0  0  0  0
    6.0081   -2.3862    0.0000 C   0  0  0  0  0  0  0  0  0  0  0  0
    7.2117   -0.2787    0.0000 O   0  0  0  0  0  0  0  0  0  0  0  0
    9.4869    1.3430    0.0000 C   0  0  0  0  0  0  0  0  0  0  0  0
    7.9869    1.3359    0.0000 C   0  0  0  0  0  0  0  0  0  0  0  0
    7.2430    0.0334    0.0000 C   0  0  0  0  0  0  0  0  0  0  0  0
    7.2308    2.6314    0.0000 C   0  0  0  0  0  0  0  0  0  0  0  0
    7.9747    3.9340    0.0000 O   0  0  0  0  0  0  0  0  0  0  0  0
    5.7308    2.6244    0.0000 C   0  0  0  0  0  0  0  0  0  0  0  0
    4.9747    3.9198    0.0000 O   0  0  0  0  0  0  0  0  0  0  0  0
    5.7186    5.2224    0.0000 C   0  0  0  0  0  0  0  0  0  0  0  0
    7.2186    5.2295    0.0000 O   0  0  0  0  0  0  0  0  0  0  0  0
    4.9625    6.5179    0.0000 C   0  0  0  0  0  0  0  0  0  0  0  0
   -1.0130    1.2936    0.0000 C   0  0  0  0  0  0  0  0  0  0  0  0
   -1.0200    2.7936    0.0000 C   0  0  0  0  0  0  0  0  0  0  0  0
   -1.0059   -0.2064    0.0000 C   0  0  0  0  0  0  0  0  0  0  0  0
   -2.5130    1.2865    0.0000 C   0  0  0  0  0  0  0  0  0  0  0  0
   -3.2569   -0.0160    0.0000 C   0  0  0  0  0  0  0  0  0  0  0  0
    0.6480   -1.0369    0.0000 H   0  0  0  0  0  0  0  0  0  0  0  0
  1  2  1  0  0  0  0
  1  6  2  0  0  0  0
  2  3  2  0  0  0  0
  3  4  1  0  0  0  0
  4  5  2  0  0  0  0
  5  6  1  0  0  0  0
  5 11  1  0  0  0  0
  6  7  1  0  0  0  0
  7  8  2  0  0  0  0
  8  9  1  0  0  0  0
  9 10  2  0  0  0  0
  9 11  1  0  0  0  0
  1 12  1  0  0  0  0
 13 14  1  0  0  0  0
 14 15  2  0  0  0  0
 14 16  1  0  0  0  0
 16 17  1  0  0  0  0
 17 18  1  0  0  0  0
 17 19  1  0  0  0  0
 17 20  1  0  0  0  0
 20 21  1  0  0  0  0
 20 22  1  0  0  0  0
  2 21  1  0  0  0  0
  3 22  1  0  0  0  0
 23 24  1  0  0  0  0
 24 25  1  0  0  0  0
 24 26  1  0  0  0  0
 26 27  2  0  0  0  0
 26 28  1  0  0  0  0
 28 29  1  0  0  0  0
 29 30  1  0  0  0  0
 30 31  2  0  0  0  0
 30 32  1  0  0  0  0
  4 28  1  0  0  0  0
 33 34  1  0  0  0  0
 33 35  1  0  0  0  0
 33 36  1  0  0  0  0
 36 37  2  0  0  0  0
  8 33  1  0  0  0  0
  7 38  1  0  0  0  0
M  END
> <score_KierA2>
0.516725

$$$$
suggested molecule #700
 MOE2019            2D

 48 53  0  0  1  0  0  0  0  0999 V2000
    3.4992   -1.2833    0.0000 C   0  0  0  0  0  0  0  0  0  1  0  0
    4.9992   -1.2762    0.0000 C   0  0  0  0  0  0  0  0  0  2  0  0
    5.7430    0.0263    0.0000 C   0  0  0  0  0  0  0  0  0  3  0  0
    4.9869    1.3218    0.0000 C   0  0  0  0  0  0  0  0  0  4  0  0
    3.4870    1.3147    0.0000 C   0  0  0  0  0  0  0  0  0  5  0  0
    2.7431    0.0122    0.0000 C   0  0  0  0  0  0  0  0  0  6  0  0
    1.2431    0.0051    0.0000 C   0  0  0  0  0  0  0  0  0  7  0  0
    0.4870    1.3006    0.0000 C   0  0  0  0  0  0  0  0  0  8  0  0
    1.2309    2.6032    0.0000 C   0  0  0  0  0  0  0  0  0  9  0  0
    0.4748    3.8987    0.0000 O   0  0  0  0  0  0  0  0  0 10  0  0
    2.7309    2.6102    0.0000 O   0  0  0  0  0  0  0  0  0 11  0  0
    2.9041   -2.3253    0.0000 H   0  0  0  0  0  0  0  0  0  0  0  0
   10.1903   -5.1046    0.0000 C   0  0  0  0  0  0  0  0  0  0  0  0
    8.6903   -5.1116    0.0000 C   0  0  0  0  0  0  0  0  0  0  0  0
    7.9464   -6.4142    0.0000 O   0  0  0  0  0  0  0  0  0  0  0  0
    7.9342   -3.8161    0.0000 O   0  0  0  0  0  0  0  0  0  0  0  0
    8.6781   -2.5136    0.0000 C   0  0  0  0  0  0  0  0  0  0  0  0
    9.9806   -3.2575    0.0000 C   0  0  0  0  0  0  0  0  0  0  0  0
    9.4220   -1.2110    0.0000 C   0  0  0  0  0  0  0  0  0  0  0  0
    7.3755   -1.7697    0.0000 C   0  0  0  0  0  0  0  0  0  0  0  0
    6.0081   -2.3862    0.0000 C   0  0  0  0  0  0  0  0  0  0  0  0
    7.2117   -0.2787    0.0000 O   0  0  0  0  0  0  0  0  0  0  0  0
    9.7348    1.7772    0.0000 C   0  0  0  0  0  0  0  0  0  0  0  0
   10.4910    0.4817    0.0000 C   0  0  0  0  0  0  0  0  0  0  0  0
    9.7471   -0.8209    0.0000 C   0  0  0  0  0  0  0  0  0  0  0  0
    8.2471   -0.8280    0.0000 C   0  0  0  0  0  0  0  0  0  0  0  0
    7.4910    0.4675    0.0000 C   0  0  0  0  0  0  0  0  0  0  0  0
    8.2349    1.7701    0.0000 C   0  0  0  0  0  0  0  0  0  0  0  0
    7.4788    3.0656    0.0000 C   0  0  1  0  0  0  0  0  0  0  0  0
    5.9788    3.0585    0.0000 C   0  0  0  0  0  0  0  0  0  0  0  0
    5.2227    4.3540    0.0000 C   0  0  0  0  0  0  0  0  0  0  0  0
    3.7227    4.3470    0.0000 O   0  0  0  0  0  0  0  0  0  0  0  0
    5.9666    5.6566    0.0000 C   0  0  0  0  0  0  0  0  0  0  0  0
    5.2105    6.9521    0.0000 C   0  0  0  0  0  0  0  0  0  0  0  0
    5.9543    8.2546    0.0000 C   0  0  0  0  0  0  0  0  0  0  0  0
    7.4543    8.2617    0.0000 C   0  0  0  0  0  0  0  0  0  0  0  0
    8.2104    6.9662    0.0000 C   0  0  0  0  0  0  0  0  0  0  0  0
    7.4665    5.6636    0.0000 C   0  0  0  0  0  0  0  0  0  0  0  0
    8.2226    4.3681    0.0000 O   0  0  0  0  0  0  0  0  0  0  0  0
    8.1982    9.5642    0.0000 O   0  0  0  0  0  0  0  0  0  0  0  0
    3.7105    6.9450    0.0000 O   0  0  0  0  0  0  0  0  0  0  0  0
   10.5032   -2.1164    0.0000 O   0  0  0  0  0  0  0  0  0  0  0  0
   -1.0130    1.2936    0.0000 C   0  0  0  0  0  0  0  0  0  0  0  0
   -1.0059   -0.2064    0.0000 C   0  0  0  0  0  0  0  0  0  0  0  0
   -1.0200    2.7936    0.0000 C   0  0  0  0  0  0  0  0  0  0  0  0
   -2.5130    1.2865    0.0000 C   0  0  0  0  0  0  0  0  0  0  0  0
   -3.2569   -0.0160    0.0000 C   0  0  0  0  0  0  0  0  0  0  0  0
    0.6480   -1.0369    0.0000 H   0  0  0  0  0  0  0  0  0  0  0  0
  1  2  2  0  0  0  0
  1  6  1  0  0  0  0
  2  3  1  0  0  0  0
  3  4  2  0  0  0  0
  4  5  1  0  0  0  0
  5  6  2  0  0  0  0
  5 11  1  0  0  0  0
  6  7  1  0  0  0  0
  7  8  2  0  0  0  0
  8  9  1  0  0  0  0
  9 10  2  0  0  0  0
  9 11  1  0  0  0  0
  1 12  1  0  0  0  0
 13 14  1  0  0  0  0
 14 15  2  0  0  0  0
 14 16  1  0  0  0  0
 16 17  1  0  0  0  0
 17 18  1  0  0  0  0
 17 19  1  0  0  0  0
 17 20  1  0  0  0  0
 20 21  1  0  0  0  0
 20 22  1  0  0  0  0
  2 21  1  0  0  0  0
  3 22  1  0  0  0  0
 23 24  1  0  0  0  0
 23 28  2  0  0  0  0
 24 25  2  0  0  0  0
 25 26  1  0  0  0  0
 25 42  1  0  0  0  0
 26 27  2  0  0  0  0
 27 28  1  0  0  0  0
 29 28  1  1  0  0  0
 29 30  1  0  0  0  0
 29 39  1  0  0  0  0
 30 31  1  0  0  0  0
 31 32  2  0  0  0  0
 31 33  1  0  0  0  0
 33 34  1  0  0  0  0
 33 38  2  0  0  0  0
 34 35  2  0  0  0  0
 34 41  1  0  0  0  0
 35 36  1  0  0  0  0
 36 37  2  0  0  0  0
 36 40  1  0  0  0  0
 37 38  1  0  0  0  0
 38 39  1  0  0  0  0
  4 30  1  0  0  0  0
 43 44  1  0  0  0  0
 43 45  1  0  0  0  0
 43 46  1  0  0  0  0
 46 47  2  0  0  0  0
  8 43  1  0  0  0  0
  7 48  1  0  0  0  0
M  END
> <score_Kier2>
0.516466

$$$$
suggested molecule #701
 MOE2019            2D

 45 47  0  0  0  0  0  0  0  0999 V2000
    3.4992   -1.2833    0.0000 C   0  0  0  0  0  0  0  0  0  1  0  0
    4.9992   -1.2762    0.0000 C   0  0  0  0  0  0  0  0  0  2  0  0
    5.7430    0.0263    0.0000 C   0  0  0  0  0  0  0  0  0  3  0  0
    4.9869    1.3218    0.0000 C   0  0  0  0  0  0  0  0  0  4  0  0
    3.4870    1.3147    0.0000 C   0  0  0  0  0  0  0  0  0  5  0  0
    2.7431    0.0122    0.0000 C   0  0  0  0  0  0  0  0  0  6  0  0
    1.2431    0.0051    0.0000 C   0  0  0  0  0  0  0  0  0  7  0  0
    0.4870    1.3006    0.0000 C   0  0  0  0  0  0  0  0  0  8  0  0
    1.2309    2.6032    0.0000 C   0  0  0  0  0  0  0  0  0  9  0  0
    0.4748    3.8987    0.0000 O   0  0  0  0  0  0  0  0  0 10  0  0
    2.7309    2.6102    0.0000 O   0  0  0  0  0  0  0  0  0 11  0  0
    2.9041   -2.3253    0.0000 H   0  0  0  0  0  0  0  0  0  0  0  0
    8.6922   -5.5135    0.0000 C   0  0  0  0  0  0  0  0  0  0  0  0
    9.9877   -4.7574    0.0000 C   0  0  0  0  0  0  0  0  0  0  0  0
   11.2902   -5.5013    0.0000 O   0  0  0  0  0  0  0  0  0  0  0  0
    9.9806   -3.2575    0.0000 O   0  0  0  0  0  0  0  0  0  0  0  0
    8.6781   -2.5136    0.0000 C   0  0  0  0  0  0  0  0  0  0  0  0
    9.4220   -1.2110    0.0000 C   0  0  0  0  0  0  0  0  0  0  0  0
    7.9342   -3.8161    0.0000 C   0  0  0  0  0  0  0  0  0  0  0  0
    7.3755   -1.7697    0.0000 C   0  0  0  0  0  0  0  0  0  0  0  0
    6.0081   -2.3862    0.0000 C   0  0  0  0  0  0  0  0  0  0  0  0
    7.2117   -0.2787    0.0000 O   0  0  0  0  0  0  0  0  0  0  0  0
    7.2064    7.8275    0.0000 C   0  0  0  0  0  0  0  0  0  0  0  0
    5.7064    7.8204    0.0000 C   0  0  0  0  0  0  0  0  0  0  0  0
    4.9625    6.5179    0.0000 C   0  0  0  0  0  0  0  0  0  0  0  0
    3.4625    6.5108    0.0000 C   0  0  0  0  0  0  0  0  0  0  0  0
    5.7186    5.2224    0.0000 C   0  0  0  0  0  0  0  0  0  0  0  0
    7.2186    5.2295    0.0000 O   0  0  0  0  0  0  0  0  0  0  0  0
    4.9747    3.9198    0.0000 O   0  0  0  0  0  0  0  0  0  0  0  0
    5.7308    2.6244    0.0000 C   0  0  0  0  0  0  0  0  0  0  0  0
    7.2308    2.6314    0.0000 C   0  0  0  0  0  0  0  0  0  0  0  0
    7.9869    1.3359    0.0000 C   0  0  0  0  0  0  0  0  0  0  0  0
    8.7430    0.0404    0.0000 O   0  0  0  0  0  0  0  0  0  0  0  0
    6.6914    0.5798    0.0000 C   0  0  0  0  0  0  0  0  0  0  0  0
    9.2824    2.0920    0.0000 C   0  0  0  0  0  0  0  0  0  0  0  0
    7.9747    3.9340    0.0000 O   0  0  0  0  0  0  0  0  0  0  0  0
    9.4747    3.9410    0.0000 C   0  0  0  0  0  0  0  0  0  0  0  0
   10.2308    2.6455    0.0000 O   0  0  0  0  0  0  0  0  0  0  0  0
   10.2186    5.2436    0.0000 C   0  0  0  0  0  0  0  0  0  0  0  0
   -1.0130    1.2936    0.0000 C   0  0  0  0  0  0  0  0  0  0  0  0
   -1.0200    2.7936    0.0000 C   0  0  0  0  0  0  0  0  0  0  0  0
   -1.0059   -0.2064    0.0000 C   0  0  0  0  0  0  0  0  0  0  0  0
   -2.5130    1.2865    0.0000 C   0  0  0  0  0  0  0  0  0  0  0  0
   -3.2569   -0.0160    0.0000 C   0  0  0  0  0  0  0  0  0  0  0  0
    0.6480   -1.0369    0.0000 H   0  0  0  0  0  0  0  0  0  0  0  0
  1  2  2  0  0  0  0
  1  6  1  0  0  0  0
  2  3  1  0  0  0  0
  3  4  2  0  0  0  0
  4  5  1  0  0  0  0
  5  6  2  0  0  0  0
  5 11  1  0  0  0  0
  6  7  1  0  0  0  0
  7  8  2  0  0  0  0
  8  9  1  0  0  0  0
  9 10  2  0  0  0  0
  9 11  1  0  0  0  0
  1 12  1  0  0  0  0
 13 14  1  0  0  0  0
 14 15  2  0  0  0  0
 14 16  1  0  0  0  0
 16 17  1  0  0  0  0
 17 18  1  0  0  0  0
 17 19  1  0  0  0  0
 17 20  1  0  0  0  0
 20 21  1  0  0  0  0
 20 22  1  0  0  0  0
  2 21  1  0  0  0  0
  3 22  1  0  0  0  0
 23 24  1  0  0  0  0
 24 25  2  0  0  0  0
 25 26  1  0  0  0  0
 25 27  1  0  0  0  0
 27 28  2  0  0  0  0
 27 29  1  0  0  0  0
 29 30  1  0  0  0  0
 30 31  1  0  0  0  0
 31 32  1  0  0  0  0
 31 36  1  0  0  0  0
 32 33  1  0  0  0  0
 32 34  1  0  0  0  0
 32 35  1  0  0  0  0
 36 37  1  0  0  0  0
 37 38  2  0  0  0  0
 37 39  1  0  0  0  0
  4 30  1  0  0  0  0
 40 41  1  0  0  0  0
 40 42  1  0  0  0  0
 40 43  1  0  0  0  0
 43 44  2  0  0  0  0
  8 40  1  0  0  0  0
  7 45  1  0  0  0  0
M  END
> <score_Kier1>
0.517727

$$$$
suggested molecule #702
 MOE2019            2D

 45 47  0  0  0  0  0  0  0  0999 V2000
    3.4992   -1.2833    0.0000 C   0  0  0  0  0  0  0  0  0  1  0  0
    4.9992   -1.2762    0.0000 C   0  0  0  0  0  0  0  0  0  2  0  0
    5.7430    0.0263    0.0000 C   0  0  0  0  0  0  0  0  0  3  0  0
    4.9869    1.3218    0.0000 C   0  0  0  0  0  0  0  0  0  4  0  0
    3.4870    1.3147    0.0000 C   0  0  0  0  0  0  0  0  0  5  0  0
    2.7431    0.0122    0.0000 C   0  0  0  0  0  0  0  0  0  6  0  0
    1.2431    0.0051    0.0000 C   0  0  0  0  0  0  0  0  0  7  0  0
    0.4870    1.3006    0.0000 C   0  0  0  0  0  0  0  0  0  8  0  0
    1.2309    2.6032    0.0000 C   0  0  0  0  0  0  0  0  0  9  0  0
    0.4748    3.8987    0.0000 O   0  0  0  0  0  0  0  0  0 10  0  0
    2.7309    2.6102    0.0000 O   0  0  0  0  0  0  0  0  0 11  0  0
    2.9041   -2.3253    0.0000 H   0  0  0  0  0  0  0  0  0  0  0  0
    8.6922   -5.5135    0.0000 C   0  0  0  0  0  0  0  0  0  0  0  0
    9.9877   -4.7574    0.0000 C   0  0  0  0  0  0  0  0  0  0  0  0
   11.2902   -5.5013    0.0000 O   0  0  0  0  0  0  0  0  0  0  0  0
    9.9806   -3.2575    0.0000 O   0  0  0  0  0  0  0  0  0  0  0  0
    8.6781   -2.5136    0.0000 C   0  0  0  0  0  0  0  0  0  0  0  0
    9.4220   -1.2110    0.0000 C   0  0  0  0  0  0  0  0  0  0  0  0
    7.9342   -3.8161    0.0000 C   0  0  0  0  0  0  0  0  0  0  0  0
    7.3755   -1.7697    0.0000 C   0  0  0  0  0  0  0  0  0  0  0  0
    6.0081   -2.3862    0.0000 C   0  0  0  0  0  0  0  0  0  0  0  0
    7.2117   -0.2787    0.0000 O   0  0  0  0  0  0  0  0  0  0  0  0
    7.2064    7.8275    0.0000 C   0  0  0  0  0  0  0  0  0  0  0  0
    5.7064    7.8204    0.0000 C   0  0  0  0  0  0  0  0  0  0  0  0
    4.9625    6.5179    0.0000 C   0  0  0  0  0  0  0  0  0  0  0  0
    3.4625    6.5108    0.0000 C   0  0  0  0  0  0  0  0  0  0  0  0
    5.7186    5.2224    0.0000 C   0  0  0  0  0  0  0  0  0  0  0  0
    7.2186    5.2295    0.0000 O   0  0  0  0  0  0  0  0  0  0  0  0
    4.9747    3.9198    0.0000 O   0  0  0  0  0  0  0  0  0  0  0  0
    5.7308    2.6244    0.0000 C   0  0  0  0  0  0  0  0  0  0  0  0
    7.2308    2.6314    0.0000 C   0  0  0  0  0  0  0  0  0  0  0  0
    7.9869    1.3359    0.0000 C   0  0  0  0  0  0  0  0  0  0  0  0
    8.7430    0.0404    0.0000 O   0  0  0  0  0  0  0  0  0  0  0  0
    6.6914    0.5798    0.0000 C   0  0  0  0  0  0  0  0  0  0  0  0
    9.2824    2.0920    0.0000 C   0  0  0  0  0  0  0  0  0  0  0  0
    7.9747    3.9340    0.0000 O   0  0  0  0  0  0  0  0  0  0  0  0
    9.4747    3.9410    0.0000 C   0  0  0  0  0  0  0  0  0  0  0  0
   10.2308    2.6455    0.0000 O   0  0  0  0  0  0  0  0  0  0  0  0
   10.2186    5.2436    0.0000 C   0  0  0  0  0  0  0  0  0  0  0  0
   -1.0130    1.2936    0.0000 C   0  0  0  0  0  0  0  0  0  0  0  0
   -1.0200    2.7936    0.0000 C   0  0  0  0  0  0  0  0  0  0  0  0
   -1.0059   -0.2064    0.0000 C   0  0  0  0  0  0  0  0  0  0  0  0
   -2.5130    1.2865    0.0000 C   0  0  0  0  0  0  0  0  0  0  0  0
   -3.2569   -0.0160    0.0000 C   0  0  0  0  0  0  0  0  0  0  0  0
    0.6480   -1.0369    0.0000 H   0  0  0  0  0  0  0  0  0  0  0  0
  1  2  2  0  0  0  0
  1  6  1  0  0  0  0
  2  3  1  0  0  0  0
  3  4  2  0  0  0  0
  4  5  1  0  0  0  0
  5  6  2  0  0  0  0
  5 11  1  0  0  0  0
  6  7  1  0  0  0  0
  7  8  2  0  0  0  0
  8  9  1  0  0  0  0
  9 10  2  0  0  0  0
  9 11  1  0  0  0  0
  1 12  1  0  0  0  0
 13 14  1  0  0  0  0
 14 15  2  0  0  0  0
 14 16  1  0  0  0  0
 16 17  1  0  0  0  0
 17 18  1  0  0  0  0
 17 19  1  0  0  0  0
 17 20  1  0  0  0  0
 20 21  1  0  0  0  0
 20 22  1  0  0  0  0
  2 21  1  0  0  0  0
  3 22  1  0  0  0  0
 23 24  1  0  0  0  0
 24 25  2  0  0  0  0
 25 26  1  0  0  0  0
 25 27  1  0  0  0  0
 27 28  2  0  0  0  0
 27 29  1  0  0  0  0
 29 30  1  0  0  0  0
 30 31  1  0  0  0  0
 31 32  1  0  0  0  0
 31 36  1  0  0  0  0
 32 33  1  0  0  0  0
 32 34  1  0  0  0  0
 32 35  1  0  0  0  0
 36 37  1  0  0  0  0
 37 38  2  0  0  0  0
 37 39  1  0  0  0  0
  4 30  1  0  0  0  0
 40 41  1  0  0  0  0
 40 42  1  0  0  0  0
 40 43  1  0  0  0  0
 43 44  2  0  0  0  0
  8 40  1  0  0  0  0
  7 45  1  0  0  0  0
M  END
> <score_Kier2>
0.516501

$$$$
suggested molecule #703
 MOE2019            2D

 45 47  0  0  0  0  0  0  0  0999 V2000
    3.4992   -1.2833    0.0000 C   0  0  0  0  0  0  0  0  0  1  0  0
    4.9992   -1.2762    0.0000 C   0  0  0  0  0  0  0  0  0  2  0  0
    5.7430    0.0263    0.0000 C   0  0  0  0  0  0  0  0  0  3  0  0
    4.9869    1.3218    0.0000 C   0  0  0  0  0  0  0  0  0  4  0  0
    3.4870    1.3147    0.0000 C   0  0  0  0  0  0  0  0  0  5  0  0
    2.7431    0.0122    0.0000 C   0  0  0  0  0  0  0  0  0  6  0  0
    1.2431    0.0051    0.0000 C   0  0  0  0  0  0  0  0  0  7  0  0
    0.4870    1.3006    0.0000 C   0  0  0  0  0  0  0  0  0  8  0  0
    1.2309    2.6032    0.0000 C   0  0  0  0  0  0  0  0  0  9  0  0
    0.4748    3.8987    0.0000 O   0  0  0  0  0  0  0  0  0 10  0  0
    2.7309    2.6102    0.0000 O   0  0  0  0  0  0  0  0  0 11  0  0
    2.9041   -2.3253    0.0000 H   0  0  0  0  0  0  0  0  0  0  0  0
    8.6922   -5.5135    0.0000 C   0  0  0  0  0  0  0  0  0  0  0  0
    9.9877   -4.7574    0.0000 C   0  0  0  0  0  0  0  0  0  0  0  0
   11.2902   -5.5013    0.0000 O   0  0  0  0  0  0  0  0  0  0  0  0
    9.9806   -3.2575    0.0000 O   0  0  0  0  0  0  0  0  0  0  0  0
    8.6781   -2.5136    0.0000 C   0  0  0  0  0  0  0  0  0  0  0  0
    9.4220   -1.2110    0.0000 C   0  0  0  0  0  0  0  0  0  0  0  0
    7.9342   -3.8161    0.0000 C   0  0  0  0  0  0  0  0  0  0  0  0
    7.3755   -1.7697    0.0000 C   0  0  0  0  0  0  0  0  0  0  0  0
    6.0081   -2.3862    0.0000 C   0  0  0  0  0  0  0  0  0  0  0  0
    7.2117   -0.2787    0.0000 O   0  0  0  0  0  0  0  0  0  0  0  0
    7.2064    7.8275    0.0000 C   0  0  0  0  0  0  0  0  0  0  0  0
    5.7064    7.8204    0.0000 C   0  0  0  0  0  0  0  0  0  0  0  0
    4.9625    6.5179    0.0000 C   0  0  0  0  0  0  0  0  0  0  0  0
    3.4625    6.5108    0.0000 C   0  0  0  0  0  0  0  0  0  0  0  0
    5.7186    5.2224    0.0000 C   0  0  0  0  0  0  0  0  0  0  0  0
    7.2186    5.2295    0.0000 O   0  0  0  0  0  0  0  0  0  0  0  0
    4.9747    3.9198    0.0000 O   0  0  0  0  0  0  0  0  0  0  0  0
    5.7308    2.6244    0.0000 C   0  0  0  0  0  0  0  0  0  0  0  0
    7.2308    2.6314    0.0000 C   0  0  0  0  0  0  0  0  0  0  0  0
    7.9869    1.3359    0.0000 C   0  0  0  0  0  0  0  0  0  0  0  0
    8.7430    0.0404    0.0000 O   0  0  0  0  0  0  0  0  0  0  0  0
    6.6914    0.5798    0.0000 C   0  0  0  0  0  0  0  0  0  0  0  0
    9.2824    2.0920    0.0000 C   0  0  0  0  0  0  0  0  0  0  0  0
    7.9747    3.9340    0.0000 O   0  0  0  0  0  0  0  0  0  0  0  0
    9.4747    3.9410    0.0000 C   0  0  0  0  0  0  0  0  0  0  0  0
   10.2308    2.6455    0.0000 O   0  0  0  0  0  0  0  0  0  0  0  0
   10.2186    5.2436    0.0000 C   0  0  0  0  0  0  0  0  0  0  0  0
   -1.0130    1.2936    0.0000 C   0  0  0  0  0  0  0  0  0  0  0  0
   -1.0200    2.7936    0.0000 C   0  0  0  0  0  0  0  0  0  0  0  0
   -1.0059   -0.2064    0.0000 C   0  0  0  0  0  0  0  0  0  0  0  0
   -2.5130    1.2865    0.0000 C   0  0  0  0  0  0  0  0  0  0  0  0
   -3.2569   -0.0160    0.0000 C   0  0  0  0  0  0  0  0  0  0  0  0
    0.6480   -1.0369    0.0000 H   0  0  0  0  0  0  0  0  0  0  0  0
  1  2  2  0  0  0  0
  1  6  1  0  0  0  0
  2  3  1  0  0  0  0
  3  4  2  0  0  0  0
  4  5  1  0  0  0  0
  5  6  2  0  0  0  0
  5 11  1  0  0  0  0
  6  7  1  0  0  0  0
  7  8  2  0  0  0  0
  8  9  1  0  0  0  0
  9 10  2  0  0  0  0
  9 11  1  0  0  0  0
  1 12  1  0  0  0  0
 13 14  1  0  0  0  0
 14 15  2  0  0  0  0
 14 16  1  0  0  0  0
 16 17  1  0  0  0  0
 17 18  1  0  0  0  0
 17 19  1  0  0  0  0
 17 20  1  0  0  0  0
 20 21  1  0  0  0  0
 20 22  1  0  0  0  0
  2 21  1  0  0  0  0
  3 22  1  0  0  0  0
 23 24  1  0  0  0  0
 24 25  2  0  0  0  0
 25 26  1  0  0  0  0
 25 27  1  0  0  0  0
 27 28  2  0  0  0  0
 27 29  1  0  0  0  0
 29 30  1  0  0  0  0
 30 31  1  0  0  0  0
 31 32  1  0  0  0  0
 31 36  1  0  0  0  0
 32 33  1  0  0  0  0
 32 34  1  0  0  0  0
 32 35  1  0  0  0  0
 36 37  1  0  0  0  0
 37 38  2  0  0  0  0
 37 39  1  0  0  0  0
  4 30  1  0  0  0  0
 40 41  1  0  0  0  0
 40 42  1  0  0  0  0
 40 43  1  0  0  0  0
 43 44  2  0  0  0  0
  8 40  1  0  0  0  0
  7 45  1  0  0  0  0
M  END
> <score_KierA2>
0.516715

$$$$
suggested molecule #704
 MOE2019            2D

 45 47  0  0  1  0  0  0  0  0999 V2000
    3.4992   -1.2833    0.0000 C   0  0  0  0  0  0  0  0  0  1  0  0
    4.9992   -1.2762    0.0000 C   0  0  0  0  0  0  0  0  0  2  0  0
    5.7430    0.0263    0.0000 C   0  0  0  0  0  0  0  0  0  3  0  0
    4.9869    1.3218    0.0000 C   0  0  0  0  0  0  0  0  0  4  0  0
    3.4870    1.3147    0.0000 C   0  0  0  0  0  0  0  0  0  5  0  0
    2.7431    0.0122    0.0000 C   0  0  0  0  0  0  0  0  0  6  0  0
    1.2431    0.0051    0.0000 C   0  0  0  0  0  0  0  0  0  7  0  0
    0.4870    1.3006    0.0000 C   0  0  0  0  0  0  0  0  0  8  0  0
    1.2309    2.6032    0.0000 C   0  0  0  0  0  0  0  0  0  9  0  0
    0.4748    3.8987    0.0000 O   0  0  0  0  0  0  0  0  0 10  0  0
    2.7309    2.6102    0.0000 O   0  0  0  0  0  0  0  0  0 11  0  0
    2.9041   -2.3253    0.0000 H   0  0  0  0  0  0  0  0  0  0  0  0
   10.1903   -5.1046    0.0000 C   0  0  0  0  0  0  0  0  0  0  0  0
    8.6903   -5.1116    0.0000 C   0  0  0  0  0  0  0  0  0  0  0  0
    7.9464   -6.4142    0.0000 O   0  0  0  0  0  0  0  0  0  0  0  0
    7.9342   -3.8161    0.0000 O   0  0  0  0  0  0  0  0  0  0  0  0
    8.6781   -2.5136    0.0000 C   0  0  0  0  0  0  0  0  0  0  0  0
    9.4220   -1.2110    0.0000 C   0  0  0  0  0  0  0  0  0  0  0  0
    9.9806   -3.2575    0.0000 C   0  0  0  0  0  0  0  0  0  0  0  0
    7.3755   -1.7697    0.0000 C   0  0  0  0  0  0  0  0  0  0  0  0
    6.0081   -2.3862    0.0000 C   0  0  0  0  0  0  0  0  0  0  0  0
    7.2117   -0.2787    0.0000 O   0  0  0  0  0  0  0  0  0  0  0  0
   12.9991   -1.2386    0.0000 C   0  0  0  0  0  0  0  0  0  0  0  0
   12.2430    0.0569    0.0000 C   0  0  0  0  0  0  0  0  0  0  0  0
   10.7430    0.0498    0.0000 C   0  0  0  0  0  0  0  0  0  0  0  0
    9.9869    1.3453    0.0000 C   0  0  0  0  0  0  0  0  0  0  0  0
   10.7308    2.6479    0.0000 O   0  0  0  0  0  0  0  0  0  0  0  0
    8.4869    1.3383    0.0000 O   0  0  0  0  0  0  0  0  0  0  0  0
    7.7308    2.6338    0.0000 C   0  0  2  0  0  0  0  0  0  0  0  0
    5.7308    2.6244    0.0000 C   0  0  0  0  0  0  0  0  0  0  0  0
    9.7772    3.1924    0.0000 O   0  0  0  0  0  0  0  0  0  0  0  0
    8.4747    3.9363    0.0000 C   0  0  0  0  0  0  0  0  0  0  0  0
    9.2186    5.2389    0.0000 C   0  0  0  0  0  0  0  0  0  0  0  0
    7.1721    4.6802    0.0000 C   0  0  0  0  0  0  0  0  0  0  0  0
    4.9747    3.9198    0.0000 O   0  0  0  0  0  0  0  0  0  0  0  0
    5.7186    5.2224    0.0000 C   0  0  0  0  0  0  0  0  0  0  0  0
    4.9625    6.5179    0.0000 O   0  0  0  0  0  0  0  0  0  0  0  0
    7.2186    5.2295    0.0000 C   0  0  0  0  0  0  0  0  0  0  0  0
   12.9869    1.3594    0.0000 C   0  0  0  0  0  0  0  0  0  0  0  0
   -1.0130    1.2936    0.0000 C   0  0  0  0  0  0  0  0  0  0  0  0
   -1.0059   -0.2064    0.0000 C   0  0  0  0  0  0  0  0  0  0  0  0
   -1.0200    2.7936    0.0000 C   0  0  0  0  0  0  0  0  0  0  0  0
   -2.5130    1.2865    0.0000 C   0  0  0  0  0  0  0  0  0  0  0  0
   -3.2569   -0.0160    0.0000 C   0  0  0  0  0  0  0  0  0  0  0  0
    0.6480   -1.0369    0.0000 H   0  0  0  0  0  0  0  0  0  0  0  0
  1  2  2  0  0  0  0
  1  6  1  0  0  0  0
  2  3  1  0  0  0  0
  3  4  2  0  0  0  0
  4  5  1  0  0  0  0
  5  6  2  0  0  0  0
  5 11  1  0  0  0  0
  6  7  1  0  0  0  0
  7  8  2  0  0  0  0
  8  9  1  0  0  0  0
  9 10  2  0  0  0  0
  9 11  1  0  0  0  0
  1 12  1  0  0  0  0
 13 14  1  0  0  0  0
 14 15  2  0  0  0  0
 14 16  1  0  0  0  0
 16 17  1  0  0  0  0
 17 18  1  0  0  0  0
 17 19  1  0  0  0  0
 17 20  1  0  0  0  0
 20 21  1  0  0  0  0
 20 22  1  0  0  0  0
  2 21  1  0  0  0  0
  3 22  1  0  0  0  0
 23 24  1  0  0  0  0
 24 25  2  0  0  0  0
 24 39  1  0  0  0  0
 25 26  1  0  0  0  0
 26 27  2  0  0  0  0
 26 28  1  0  0  0  0
 29 28  1  1  0  0  0
 29 30  1  0  0  0  0
 29 32  1  0  0  0  0
 30 35  1  0  0  0  0
 31 32  1  0  0  0  0
 32 33  1  0  0  0  0
 32 34  1  0  0  0  0
 35 36  1  0  0  0  0
 36 37  2  0  0  0  0
 36 38  1  0  0  0  0
  4 30  1  0  0  0  0
 40 41  1  0  0  0  0
 40 42  1  0  0  0  0
 40 43  1  0  0  0  0
 43 44  2  0  0  0  0
  8 40  1  0  0  0  0
  7 45  1  0  0  0  0
M  END
> <score_Kier1>
0.517727

$$$$
suggested molecule #705
 MOE2019            2D

 45 47  0  0  1  0  0  0  0  0999 V2000
    3.4992   -1.2833    0.0000 C   0  0  0  0  0  0  0  0  0  1  0  0
    4.9992   -1.2762    0.0000 C   0  0  0  0  0  0  0  0  0  2  0  0
    5.7430    0.0263    0.0000 C   0  0  0  0  0  0  0  0  0  3  0  0
    4.9869    1.3218    0.0000 C   0  0  0  0  0  0  0  0  0  4  0  0
    3.4870    1.3147    0.0000 C   0  0  0  0  0  0  0  0  0  5  0  0
    2.7431    0.0122    0.0000 C   0  0  0  0  0  0  0  0  0  6  0  0
    1.2431    0.0051    0.0000 C   0  0  0  0  0  0  0  0  0  7  0  0
    0.4870    1.3006    0.0000 C   0  0  0  0  0  0  0  0  0  8  0  0
    1.2309    2.6032    0.0000 C   0  0  0  0  0  0  0  0  0  9  0  0
    0.4748    3.8987    0.0000 O   0  0  0  0  0  0  0  0  0 10  0  0
    2.7309    2.6102    0.0000 O   0  0  0  0  0  0  0  0  0 11  0  0
    2.9041   -2.3253    0.0000 H   0  0  0  0  0  0  0  0  0  0  0  0
   10.1903   -5.1046    0.0000 C   0  0  0  0  0  0  0  0  0  0  0  0
    8.6903   -5.1116    0.0000 C   0  0  0  0  0  0  0  0  0  0  0  0
    7.9464   -6.4142    0.0000 O   0  0  0  0  0  0  0  0  0  0  0  0
    7.9342   -3.8161    0.0000 O   0  0  0  0  0  0  0  0  0  0  0  0
    8.6781   -2.5136    0.0000 C   0  0  0  0  0  0  0  0  0  0  0  0
    9.4220   -1.2110    0.0000 C   0  0  0  0  0  0  0  0  0  0  0  0
    9.9806   -3.2575    0.0000 C   0  0  0  0  0  0  0  0  0  0  0  0
    7.3755   -1.7697    0.0000 C   0  0  0  0  0  0  0  0  0  0  0  0
    6.0081   -2.3862    0.0000 C   0  0  0  0  0  0  0  0  0  0  0  0
    7.2117   -0.2787    0.0000 O   0  0  0  0  0  0  0  0  0  0  0  0
   12.9991   -1.2386    0.0000 C   0  0  0  0  0  0  0  0  0  0  0  0
   12.2430    0.0569    0.0000 C   0  0  0  0  0  0  0  0  0  0  0  0
   10.7430    0.0498    0.0000 C   0  0  0  0  0  0  0  0  0  0  0  0
    9.9869    1.3453    0.0000 C   0  0  0  0  0  0  0  0  0  0  0  0
   10.7308    2.6479    0.0000 O   0  0  0  0  0  0  0  0  0  0  0  0
    8.4869    1.3383    0.0000 O   0  0  0  0  0  0  0  0  0  0  0  0
    7.7308    2.6338    0.0000 C   0  0  2  0  0  0  0  0  0  0  0  0
    5.7308    2.6244    0.0000 C   0  0  0  0  0  0  0  0  0  0  0  0
    9.7772    3.1924    0.0000 O   0  0  0  0  0  0  0  0  0  0  0  0
    8.4747    3.9363    0.0000 C   0  0  0  0  0  0  0  0  0  0  0  0
    9.2186    5.2389    0.0000 C   0  0  0  0  0  0  0  0  0  0  0  0
    7.1721    4.6802    0.0000 C   0  0  0  0  0  0  0  0  0  0  0  0
    4.9747    3.9198    0.0000 O   0  0  0  0  0  0  0  0  0  0  0  0
    5.7186    5.2224    0.0000 C   0  0  0  0  0  0  0  0  0  0  0  0
    4.9625    6.5179    0.0000 O   0  0  0  0  0  0  0  0  0  0  0  0
    7.2186    5.2295    0.0000 C   0  0  0  0  0  0  0  0  0  0  0  0
   12.9869    1.3594    0.0000 C   0  0  0  0  0  0  0  0  0  0  0  0
   -1.0130    1.2936    0.0000 C   0  0  0  0  0  0  0  0  0  0  0  0
   -1.0059   -0.2064    0.0000 C   0  0  0  0  0  0  0  0  0  0  0  0
   -1.0200    2.7936    0.0000 C   0  0  0  0  0  0  0  0  0  0  0  0
   -2.5130    1.2865    0.0000 C   0  0  0  0  0  0  0  0  0  0  0  0
   -3.2569   -0.0160    0.0000 C   0  0  0  0  0  0  0  0  0  0  0  0
    0.6480   -1.0369    0.0000 H   0  0  0  0  0  0  0  0  0  0  0  0
  1  2  2  0  0  0  0
  1  6  1  0  0  0  0
  2  3  1  0  0  0  0
  3  4  2  0  0  0  0
  4  5  1  0  0  0  0
  5  6  2  0  0  0  0
  5 11  1  0  0  0  0
  6  7  1  0  0  0  0
  7  8  2  0  0  0  0
  8  9  1  0  0  0  0
  9 10  2  0  0  0  0
  9 11  1  0  0  0  0
  1 12  1  0  0  0  0
 13 14  1  0  0  0  0
 14 15  2  0  0  0  0
 14 16  1  0  0  0  0
 16 17  1  0  0  0  0
 17 18  1  0  0  0  0
 17 19  1  0  0  0  0
 17 20  1  0  0  0  0
 20 21  1  0  0  0  0
 20 22  1  0  0  0  0
  2 21  1  0  0  0  0
  3 22  1  0  0  0  0
 23 24  1  0  0  0  0
 24 25  2  0  0  0  0
 24 39  1  0  0  0  0
 25 26  1  0  0  0  0
 26 27  2  0  0  0  0
 26 28  1  0  0  0  0
 29 28  1  1  0  0  0
 29 30  1  0  0  0  0
 29 32  1  0  0  0  0
 30 35  1  0  0  0  0
 31 32  1  0  0  0  0
 32 33  1  0  0  0  0
 32 34  1  0  0  0  0
 35 36  1  0  0  0  0
 36 37  2  0  0  0  0
 36 38  1  0  0  0  0
  4 30  1  0  0  0  0
 40 41  1  0  0  0  0
 40 42  1  0  0  0  0
 40 43  1  0  0  0  0
 43 44  2  0  0  0  0
  8 40  1  0  0  0  0
  7 45  1  0  0  0  0
M  END
> <score_Kier2>
0.516501

$$$$
suggested molecule #706
 MOE2019            2D

 45 47  0  0  1  0  0  0  0  0999 V2000
    3.4992   -1.2833    0.0000 C   0  0  0  0  0  0  0  0  0  1  0  0
    4.9992   -1.2762    0.0000 C   0  0  0  0  0  0  0  0  0  2  0  0
    5.7430    0.0263    0.0000 C   0  0  0  0  0  0  0  0  0  3  0  0
    4.9869    1.3218    0.0000 C   0  0  0  0  0  0  0  0  0  4  0  0
    3.4870    1.3147    0.0000 C   0  0  0  0  0  0  0  0  0  5  0  0
    2.7431    0.0122    0.0000 C   0  0  0  0  0  0  0  0  0  6  0  0
    1.2431    0.0051    0.0000 C   0  0  0  0  0  0  0  0  0  7  0  0
    0.4870    1.3006    0.0000 C   0  0  0  0  0  0  0  0  0  8  0  0
    1.2309    2.6032    0.0000 C   0  0  0  0  0  0  0  0  0  9  0  0
    0.4748    3.8987    0.0000 O   0  0  0  0  0  0  0  0  0 10  0  0
    2.7309    2.6102    0.0000 O   0  0  0  0  0  0  0  0  0 11  0  0
    2.9041   -2.3253    0.0000 H   0  0  0  0  0  0  0  0  0  0  0  0
   10.1903   -5.1046    0.0000 C   0  0  0  0  0  0  0  0  0  0  0  0
    8.6903   -5.1116    0.0000 C   0  0  0  0  0  0  0  0  0  0  0  0
    7.9464   -6.4142    0.0000 O   0  0  0  0  0  0  0  0  0  0  0  0
    7.9342   -3.8161    0.0000 O   0  0  0  0  0  0  0  0  0  0  0  0
    8.6781   -2.5136    0.0000 C   0  0  0  0  0  0  0  0  0  0  0  0
    9.4220   -1.2110    0.0000 C   0  0  0  0  0  0  0  0  0  0  0  0
    9.9806   -3.2575    0.0000 C   0  0  0  0  0  0  0  0  0  0  0  0
    7.3755   -1.7697    0.0000 C   0  0  0  0  0  0  0  0  0  0  0  0
    6.0081   -2.3862    0.0000 C   0  0  0  0  0  0  0  0  0  0  0  0
    7.2117   -0.2787    0.0000 O   0  0  0  0  0  0  0  0  0  0  0  0
   12.9991   -1.2386    0.0000 C   0  0  0  0  0  0  0  0  0  0  0  0
   12.2430    0.0569    0.0000 C   0  0  0  0  0  0  0  0  0  0  0  0
   10.7430    0.0498    0.0000 C   0  0  0  0  0  0  0  0  0  0  0  0
    9.9869    1.3453    0.0000 C   0  0  0  0  0  0  0  0  0  0  0  0
   10.7308    2.6479    0.0000 O   0  0  0  0  0  0  0  0  0  0  0  0
    8.4869    1.3383    0.0000 O   0  0  0  0  0  0  0  0  0  0  0  0
    7.7308    2.6338    0.0000 C   0  0  2  0  0  0  0  0  0  0  0  0
    5.7308    2.6244    0.0000 C   0  0  0  0  0  0  0  0  0  0  0  0
    9.7772    3.1924    0.0000 O   0  0  0  0  0  0  0  0  0  0  0  0
    8.4747    3.9363    0.0000 C   0  0  0  0  0  0  0  0  0  0  0  0
    9.2186    5.2389    0.0000 C   0  0  0  0  0  0  0  0  0  0  0  0
    7.1721    4.6802    0.0000 C   0  0  0  0  0  0  0  0  0  0  0  0
    4.9747    3.9198    0.0000 O   0  0  0  0  0  0  0  0  0  0  0  0
    5.7186    5.2224    0.0000 C   0  0  0  0  0  0  0  0  0  0  0  0
    4.9625    6.5179    0.0000 O   0  0  0  0  0  0  0  0  0  0  0  0
    7.2186    5.2295    0.0000 C   0  0  0  0  0  0  0  0  0  0  0  0
   12.9869    1.3594    0.0000 C   0  0  0  0  0  0  0  0  0  0  0  0
   -1.0130    1.2936    0.0000 C   0  0  0  0  0  0  0  0  0  0  0  0
   -1.0059   -0.2064    0.0000 C   0  0  0  0  0  0  0  0  0  0  0  0
   -1.0200    2.7936    0.0000 C   0  0  0  0  0  0  0  0  0  0  0  0
   -2.5130    1.2865    0.0000 C   0  0  0  0  0  0  0  0  0  0  0  0
   -3.2569   -0.0160    0.0000 C   0  0  0  0  0  0  0  0  0  0  0  0
    0.6480   -1.0369    0.0000 H   0  0  0  0  0  0  0  0  0  0  0  0
  1  2  2  0  0  0  0
  1  6  1  0  0  0  0
  2  3  1  0  0  0  0
  3  4  2  0  0  0  0
  4  5  1  0  0  0  0
  5  6  2  0  0  0  0
  5 11  1  0  0  0  0
  6  7  1  0  0  0  0
  7  8  2  0  0  0  0
  8  9  1  0  0  0  0
  9 10  2  0  0  0  0
  9 11  1  0  0  0  0
  1 12  1  0  0  0  0
 13 14  1  0  0  0  0
 14 15  2  0  0  0  0
 14 16  1  0  0  0  0
 16 17  1  0  0  0  0
 17 18  1  0  0  0  0
 17 19  1  0  0  0  0
 17 20  1  0  0  0  0
 20 21  1  0  0  0  0
 20 22  1  0  0  0  0
  2 21  1  0  0  0  0
  3 22  1  0  0  0  0
 23 24  1  0  0  0  0
 24 25  2  0  0  0  0
 24 39  1  0  0  0  0
 25 26  1  0  0  0  0
 26 27  2  0  0  0  0
 26 28  1  0  0  0  0
 29 28  1  1  0  0  0
 29 30  1  0  0  0  0
 29 32  1  0  0  0  0
 30 35  1  0  0  0  0
 31 32  1  0  0  0  0
 32 33  1  0  0  0  0
 32 34  1  0  0  0  0
 35 36  1  0  0  0  0
 36 37  2  0  0  0  0
 36 38  1  0  0  0  0
  4 30  1  0  0  0  0
 40 41  1  0  0  0  0
 40 42  1  0  0  0  0
 40 43  1  0  0  0  0
 43 44  2  0  0  0  0
  8 40  1  0  0  0  0
  7 45  1  0  0  0  0
M  END
> <score_KierA2>
0.516715

$$$$
suggested molecule #707
 MOE2019            2D

 34 36  0  0  0  0  0  0  0  0999 V2000
    3.4992   -1.2833    0.0000 C   0  0  0  0  0  0  0  0  0  1  0  0
    4.9992   -1.2762    0.0000 C   0  0  0  0  0  0  0  0  0  2  0  0
    5.7430    0.0263    0.0000 C   0  0  0  0  0  0  0  0  0  3  0  0
    4.9869    1.3218    0.0000 C   0  0  0  0  0  0  0  0  0  4  0  0
    3.4870    1.3147    0.0000 C   0  0  0  0  0  0  0  0  0  5  0  0
    2.7431    0.0122    0.0000 C   0  0  0  0  0  0  0  0  0  6  0  0
    1.2431    0.0051    0.0000 C   0  0  0  0  0  0  0  0  0  7  0  0
    0.4870    1.3006    0.0000 C   0  0  0  0  0  0  0  0  0  8  0  0
    1.2309    2.6032    0.0000 C   0  0  0  0  0  0  0  0  0  9  0  0
    0.4748    3.8987    0.0000 O   0  0  0  0  0  0  0  0  0 10  0  0
    2.7309    2.6102    0.0000 O   0  0  0  0  0  0  0  0  0 11  0  0
    2.9041   -2.3253    0.0000 H   0  0  0  0  0  0  0  0  0  0  0  0
   11.2902   -5.5013    0.0000 C   0  0  0  0  0  0  0  0  0  0  0  0
    9.9877   -4.7574    0.0000 C   0  0  0  0  0  0  0  0  0  0  0  0
    8.6922   -5.5135    0.0000 O   0  0  0  0  0  0  0  0  0  0  0  0
    9.9806   -3.2575    0.0000 O   0  0  0  0  0  0  0  0  0  0  0  0
    8.6781   -2.5136    0.0000 C   0  0  0  0  0  0  0  0  0  0  0  0
    7.9342   -3.8161    0.0000 C   0  0  0  0  0  0  0  0  0  0  0  0
    9.4220   -1.2110    0.0000 C   0  0  0  0  0  0  0  0  0  0  0  0
    7.3755   -1.7697    0.0000 C   0  0  0  0  0  0  0  0  0  0  0  0
    6.0081   -2.3862    0.0000 C   0  0  0  0  0  0  0  0  0  0  0  0
    7.2117   -0.2787    0.0000 O   0  0  0  0  0  0  0  0  0  0  0  0
    5.7308    2.6244    0.0000 C   0  0  0  0  0  0  0  0  0  0  0  0
    7.2308    2.6314    0.0000 C   0  0  0  0  0  0  0  0  0  0  0  0
    7.9747    3.9340    0.0000 C   0  0  0  0  0  0  0  0  0  0  0  0
    6.6721    4.6778    0.0000 O   0  0  0  0  0  0  0  0  0  0  0  0
    9.2772    3.1901    0.0000 C   0  0  0  0  0  0  0  0  0  0  0  0
    8.7186    5.2365    0.0000 C   0  0  0  0  0  0  0  0  0  0  0  0
   -1.0130    1.2936    0.0000 C   0  0  0  0  0  0  0  0  0  0  0  0
   -1.0200    2.7936    0.0000 C   0  0  0  0  0  0  0  0  0  0  0  0
   -1.0059   -0.2064    0.0000 C   0  0  0  0  0  0  0  0  0  0  0  0
   -2.5130    1.2865    0.0000 C   0  0  0  0  0  0  0  0  0  0  0  0
   -3.2569   -0.0160    0.0000 C   0  0  0  0  0  0  0  0  0  0  0  0
    0.6480   -1.0369    0.0000 H   0  0  0  0  0  0  0  0  0  0  0  0
  1  2  1  0  0  0  0
  1  6  2  0  0  0  0
  2  3  2  0  0  0  0
  3  4  1  0  0  0  0
  4  5  2  0  0  0  0
  5  6  1  0  0  0  0
  5 11  1  0  0  0  0
  6  7  1  0  0  0  0
  7  8  2  0  0  0  0
  8  9  1  0  0  0  0
  9 10  2  0  0  0  0
  9 11  1  0  0  0  0
  1 12  1  0  0  0  0
 13 14  1  0  0  0  0
 14 15  2  0  0  0  0
 14 16  1  0  0  0  0
 16 17  1  0  0  0  0
 17 18  1  0  0  0  0
 17 19  1  0  0  0  0
 17 20  1  0  0  0  0
 20 21  1  0  0  0  0
 20 22  1  0  0  0  0
  2 21  1  0  0  0  0
  3 22  1  0  0  0  0
 23 24  2  0  0  0  0
 24 25  1  0  0  0  0
 25 26  1  0  0  0  0
 25 27  1  0  0  0  0
 25 28  1  0  0  0  0
  4 23  1  0  0  0  0
 29 30  1  0  0  0  0
 29 31  1  0  0  0  0
 29 32  1  0  0  0  0
 32 33  2  0  0  0  0
  8 29  1  0  0  0  0
  7 34  1  0  0  0  0
M  END
> <score_Kier1>
0.517703

$$$$
suggested molecule #708
 MOE2019            2D

 34 36  0  0  0  0  0  0  0  0999 V2000
    3.4992   -1.2833    0.0000 C   0  0  0  0  0  0  0  0  0  1  0  0
    4.9992   -1.2762    0.0000 C   0  0  0  0  0  0  0  0  0  2  0  0
    5.7430    0.0263    0.0000 C   0  0  0  0  0  0  0  0  0  3  0  0
    4.9869    1.3218    0.0000 C   0  0  0  0  0  0  0  0  0  4  0  0
    3.4870    1.3147    0.0000 C   0  0  0  0  0  0  0  0  0  5  0  0
    2.7431    0.0122    0.0000 C   0  0  0  0  0  0  0  0  0  6  0  0
    1.2431    0.0051    0.0000 C   0  0  0  0  0  0  0  0  0  7  0  0
    0.4870    1.3006    0.0000 C   0  0  0  0  0  0  0  0  0  8  0  0
    1.2309    2.6032    0.0000 C   0  0  0  0  0  0  0  0  0  9  0  0
    0.4748    3.8987    0.0000 O   0  0  0  0  0  0  0  0  0 10  0  0
    2.7309    2.6102    0.0000 O   0  0  0  0  0  0  0  0  0 11  0  0
    2.9041   -2.3253    0.0000 H   0  0  0  0  0  0  0  0  0  0  0  0
   11.2902   -5.5013    0.0000 C   0  0  0  0  0  0  0  0  0  0  0  0
    9.9877   -4.7574    0.0000 C   0  0  0  0  0  0  0  0  0  0  0  0
    8.6922   -5.5135    0.0000 O   0  0  0  0  0  0  0  0  0  0  0  0
    9.9806   -3.2575    0.0000 O   0  0  0  0  0  0  0  0  0  0  0  0
    8.6781   -2.5136    0.0000 C   0  0  0  0  0  0  0  0  0  0  0  0
    7.9342   -3.8161    0.0000 C   0  0  0  0  0  0  0  0  0  0  0  0
    9.4220   -1.2110    0.0000 C   0  0  0  0  0  0  0  0  0  0  0  0
    7.3755   -1.7697    0.0000 C   0  0  0  0  0  0  0  0  0  0  0  0
    6.0081   -2.3862    0.0000 C   0  0  0  0  0  0  0  0  0  0  0  0
    7.2117   -0.2787    0.0000 O   0  0  0  0  0  0  0  0  0  0  0  0
    5.7308    2.6244    0.0000 C   0  0  0  0  0  0  0  0  0  0  0  0
    7.2308    2.6314    0.0000 C   0  0  0  0  0  0  0  0  0  0  0  0
    7.9747    3.9340    0.0000 C   0  0  0  0  0  0  0  0  0  0  0  0
    6.6721    4.6778    0.0000 O   0  0  0  0  0  0  0  0  0  0  0  0
    9.2772    3.1901    0.0000 C   0  0  0  0  0  0  0  0  0  0  0  0
    8.7186    5.2365    0.0000 C   0  0  0  0  0  0  0  0  0  0  0  0
   -1.0130    1.2936    0.0000 C   0  0  0  0  0  0  0  0  0  0  0  0
   -1.0200    2.7936    0.0000 C   0  0  0  0  0  0  0  0  0  0  0  0
   -1.0059   -0.2064    0.0000 C   0  0  0  0  0  0  0  0  0  0  0  0
   -2.5130    1.2865    0.0000 C   0  0  0  0  0  0  0  0  0  0  0  0
   -3.2569   -0.0160    0.0000 C   0  0  0  0  0  0  0  0  0  0  0  0
    0.6480   -1.0369    0.0000 H   0  0  0  0  0  0  0  0  0  0  0  0
  1  2  1  0  0  0  0
  1  6  2  0  0  0  0
  2  3  2  0  0  0  0
  3  4  1  0  0  0  0
  4  5  2  0  0  0  0
  5  6  1  0  0  0  0
  5 11  1  0  0  0  0
  6  7  1  0  0  0  0
  7  8  2  0  0  0  0
  8  9  1  0  0  0  0
  9 10  2  0  0  0  0
  9 11  1  0  0  0  0
  1 12  1  0  0  0  0
 13 14  1  0  0  0  0
 14 15  2  0  0  0  0
 14 16  1  0  0  0  0
 16 17  1  0  0  0  0
 17 18  1  0  0  0  0
 17 19  1  0  0  0  0
 17 20  1  0  0  0  0
 20 21  1  0  0  0  0
 20 22  1  0  0  0  0
  2 21  1  0  0  0  0
  3 22  1  0  0  0  0
 23 24  2  0  0  0  0
 24 25  1  0  0  0  0
 25 26  1  0  0  0  0
 25 27  1  0  0  0  0
 25 28  1  0  0  0  0
  4 23  1  0  0  0  0
 29 30  1  0  0  0  0
 29 31  1  0  0  0  0
 29 32  1  0  0  0  0
 32 33  2  0  0  0  0
  8 29  1  0  0  0  0
  7 34  1  0  0  0  0
M  END
> <score_Kier2>
0.516504

$$$$
suggested molecule #709
 MOE2019            2D

 34 36  0  0  0  0  0  0  0  0999 V2000
    3.4992   -1.2833    0.0000 C   0  0  0  0  0  0  0  0  0  1  0  0
    4.9992   -1.2762    0.0000 C   0  0  0  0  0  0  0  0  0  2  0  0
    5.7430    0.0263    0.0000 C   0  0  0  0  0  0  0  0  0  3  0  0
    4.9869    1.3218    0.0000 C   0  0  0  0  0  0  0  0  0  4  0  0
    3.4870    1.3147    0.0000 C   0  0  0  0  0  0  0  0  0  5  0  0
    2.7431    0.0122    0.0000 C   0  0  0  0  0  0  0  0  0  6  0  0
    1.2431    0.0051    0.0000 C   0  0  0  0  0  0  0  0  0  7  0  0
    0.4870    1.3006    0.0000 C   0  0  0  0  0  0  0  0  0  8  0  0
    1.2309    2.6032    0.0000 C   0  0  0  0  0  0  0  0  0  9  0  0
    0.4748    3.8987    0.0000 O   0  0  0  0  0  0  0  0  0 10  0  0
    2.7309    2.6102    0.0000 O   0  0  0  0  0  0  0  0  0 11  0  0
    2.9041   -2.3253    0.0000 H   0  0  0  0  0  0  0  0  0  0  0  0
   11.2902   -5.5013    0.0000 C   0  0  0  0  0  0  0  0  0  0  0  0
    9.9877   -4.7574    0.0000 C   0  0  0  0  0  0  0  0  0  0  0  0
    8.6922   -5.5135    0.0000 O   0  0  0  0  0  0  0  0  0  0  0  0
    9.9806   -3.2575    0.0000 O   0  0  0  0  0  0  0  0  0  0  0  0
    8.6781   -2.5136    0.0000 C   0  0  0  0  0  0  0  0  0  0  0  0
    7.9342   -3.8161    0.0000 C   0  0  0  0  0  0  0  0  0  0  0  0
    9.4220   -1.2110    0.0000 C   0  0  0  0  0  0  0  0  0  0  0  0
    7.3755   -1.7697    0.0000 C   0  0  0  0  0  0  0  0  0  0  0  0
    6.0081   -2.3862    0.0000 C   0  0  0  0  0  0  0  0  0  0  0  0
    7.2117   -0.2787    0.0000 O   0  0  0  0  0  0  0  0  0  0  0  0
    5.7308    2.6244    0.0000 C   0  0  0  0  0  0  0  0  0  0  0  0
    7.2308    2.6314    0.0000 C   0  0  0  0  0  0  0  0  0  0  0  0
    7.9747    3.9340    0.0000 C   0  0  0  0  0  0  0  0  0  0  0  0
    6.6721    4.6778    0.0000 O   0  0  0  0  0  0  0  0  0  0  0  0
    9.2772    3.1901    0.0000 C   0  0  0  0  0  0  0  0  0  0  0  0
    8.7186    5.2365    0.0000 C   0  0  0  0  0  0  0  0  0  0  0  0
   -1.0130    1.2936    0.0000 C   0  0  0  0  0  0  0  0  0  0  0  0
   -1.0200    2.7936    0.0000 C   0  0  0  0  0  0  0  0  0  0  0  0
   -1.0059   -0.2064    0.0000 C   0  0  0  0  0  0  0  0  0  0  0  0
   -2.5130    1.2865    0.0000 C   0  0  0  0  0  0  0  0  0  0  0  0
   -3.2569   -0.0160    0.0000 C   0  0  0  0  0  0  0  0  0  0  0  0
    0.6480   -1.0369    0.0000 H   0  0  0  0  0  0  0  0  0  0  0  0
  1  2  1  0  0  0  0
  1  6  2  0  0  0  0
  2  3  2  0  0  0  0
  3  4  1  0  0  0  0
  4  5  2  0  0  0  0
  5  6  1  0  0  0  0
  5 11  1  0  0  0  0
  6  7  1  0  0  0  0
  7  8  2  0  0  0  0
  8  9  1  0  0  0  0
  9 10  2  0  0  0  0
  9 11  1  0  0  0  0
  1 12  1  0  0  0  0
 13 14  1  0  0  0  0
 14 15  2  0  0  0  0
 14 16  1  0  0  0  0
 16 17  1  0  0  0  0
 17 18  1  0  0  0  0
 17 19  1  0  0  0  0
 17 20  1  0  0  0  0
 20 21  1  0  0  0  0
 20 22  1  0  0  0  0
  2 21  1  0  0  0  0
  3 22  1  0  0  0  0
 23 24  2  0  0  0  0
 24 25  1  0  0  0  0
 25 26  1  0  0  0  0
 25 27  1  0  0  0  0
 25 28  1  0  0  0  0
  4 23  1  0  0  0  0
 29 30  1  0  0  0  0
 29 31  1  0  0  0  0
 29 32  1  0  0  0  0
 32 33  2  0  0  0  0
  8 29  1  0  0  0  0
  7 34  1  0  0  0  0
M  END
> <score_KierA1>
0.51759

$$$$
suggested molecule #710
 MOE2019            2D

 34 36  0  0  0  0  0  0  0  0999 V2000
    3.4992   -1.2833    0.0000 C   0  0  0  0  0  0  0  0  0  1  0  0
    4.9992   -1.2762    0.0000 C   0  0  0  0  0  0  0  0  0  2  0  0
    5.7430    0.0263    0.0000 C   0  0  0  0  0  0  0  0  0  3  0  0
    4.9869    1.3218    0.0000 C   0  0  0  0  0  0  0  0  0  4  0  0
    3.4870    1.3147    0.0000 C   0  0  0  0  0  0  0  0  0  5  0  0
    2.7431    0.0122    0.0000 C   0  0  0  0  0  0  0  0  0  6  0  0
    1.2431    0.0051    0.0000 C   0  0  0  0  0  0  0  0  0  7  0  0
    0.4870    1.3006    0.0000 C   0  0  0  0  0  0  0  0  0  8  0  0
    1.2309    2.6032    0.0000 C   0  0  0  0  0  0  0  0  0  9  0  0
    0.4748    3.8987    0.0000 O   0  0  0  0  0  0  0  0  0 10  0  0
    2.7309    2.6102    0.0000 O   0  0  0  0  0  0  0  0  0 11  0  0
    2.9041   -2.3253    0.0000 H   0  0  0  0  0  0  0  0  0  0  0  0
   11.2902   -5.5013    0.0000 C   0  0  0  0  0  0  0  0  0  0  0  0
    9.9877   -4.7574    0.0000 C   0  0  0  0  0  0  0  0  0  0  0  0
    8.6922   -5.5135    0.0000 O   0  0  0  0  0  0  0  0  0  0  0  0
    9.9806   -3.2575    0.0000 O   0  0  0  0  0  0  0  0  0  0  0  0
    8.6781   -2.5136    0.0000 C   0  0  0  0  0  0  0  0  0  0  0  0
    7.9342   -3.8161    0.0000 C   0  0  0  0  0  0  0  0  0  0  0  0
    9.4220   -1.2110    0.0000 C   0  0  0  0  0  0  0  0  0  0  0  0
    7.3755   -1.7697    0.0000 C   0  0  0  0  0  0  0  0  0  0  0  0
    6.0081   -2.3862    0.0000 C   0  0  0  0  0  0  0  0  0  0  0  0
    7.2117   -0.2787    0.0000 O   0  0  0  0  0  0  0  0  0  0  0  0
    5.7308    2.6244    0.0000 C   0  0  0  0  0  0  0  0  0  0  0  0
    7.2308    2.6314    0.0000 C   0  0  0  0  0  0  0  0  0  0  0  0
    7.9747    3.9340    0.0000 C   0  0  0  0  0  0  0  0  0  0  0  0
    6.6721    4.6778    0.0000 O   0  0  0  0  0  0  0  0  0  0  0  0
    9.2772    3.1901    0.0000 C   0  0  0  0  0  0  0  0  0  0  0  0
    8.7186    5.2365    0.0000 C   0  0  0  0  0  0  0  0  0  0  0  0
   -1.0130    1.2936    0.0000 C   0  0  0  0  0  0  0  0  0  0  0  0
   -1.0200    2.7936    0.0000 C   0  0  0  0  0  0  0  0  0  0  0  0
   -1.0059   -0.2064    0.0000 C   0  0  0  0  0  0  0  0  0  0  0  0
   -2.5130    1.2865    0.0000 C   0  0  0  0  0  0  0  0  0  0  0  0
   -3.2569   -0.0160    0.0000 C   0  0  0  0  0  0  0  0  0  0  0  0
    0.6480   -1.0369    0.0000 H   0  0  0  0  0  0  0  0  0  0  0  0
  1  2  1  0  0  0  0
  1  6  2  0  0  0  0
  2  3  2  0  0  0  0
  3  4  1  0  0  0  0
  4  5  2  0  0  0  0
  5  6  1  0  0  0  0
  5 11  1  0  0  0  0
  6  7  1  0  0  0  0
  7  8  2  0  0  0  0
  8  9  1  0  0  0  0
  9 10  2  0  0  0  0
  9 11  1  0  0  0  0
  1 12  1  0  0  0  0
 13 14  1  0  0  0  0
 14 15  2  0  0  0  0
 14 16  1  0  0  0  0
 16 17  1  0  0  0  0
 17 18  1  0  0  0  0
 17 19  1  0  0  0  0
 17 20  1  0  0  0  0
 20 21  1  0  0  0  0
 20 22  1  0  0  0  0
  2 21  1  0  0  0  0
  3 22  1  0  0  0  0
 23 24  2  0  0  0  0
 24 25  1  0  0  0  0
 25 26  1  0  0  0  0
 25 27  1  0  0  0  0
 25 28  1  0  0  0  0
  4 23  1  0  0  0  0
 29 30  1  0  0  0  0
 29 31  1  0  0  0  0
 29 32  1  0  0  0  0
 32 33  2  0  0  0  0
  8 29  1  0  0  0  0
  7 34  1  0  0  0  0
M  END
> <score_KierA2>
0.516747

$$$$
suggested molecule #711
 MOE2019            2D

 34 36  0  0  0  0  0  0  0  0999 V2000
    3.4992   -1.2833    0.0000 C   0  0  0  0  0  0  0  0  0  1  0  0
    4.9992   -1.2762    0.0000 C   0  0  0  0  0  0  0  0  0  2  0  0
    5.7430    0.0263    0.0000 C   0  0  0  0  0  0  0  0  0  3  0  0
    4.9869    1.3218    0.0000 C   0  0  0  0  0  0  0  0  0  4  0  0
    3.4870    1.3147    0.0000 C   0  0  0  0  0  0  0  0  0  5  0  0
    2.7431    0.0122    0.0000 C   0  0  0  0  0  0  0  0  0  6  0  0
    1.2431    0.0051    0.0000 C   0  0  0  0  0  0  0  0  0  7  0  0
    0.4870    1.3006    0.0000 C   0  0  0  0  0  0  0  0  0  8  0  0
    1.2309    2.6032    0.0000 C   0  0  0  0  0  0  0  0  0  9  0  0
    0.4748    3.8987    0.0000 O   0  0  0  0  0  0  0  0  0 10  0  0
    2.7309    2.6102    0.0000 O   0  0  0  0  0  0  0  0  0 11  0  0
    2.9041   -2.3253    0.0000 H   0  0  0  0  0  0  0  0  0  0  0  0
   11.2902   -5.5013    0.0000 C   0  0  0  0  0  0  0  0  0  0  0  0
    9.9877   -4.7574    0.0000 C   0  0  0  0  0  0  0  0  0  0  0  0
    8.6922   -5.5135    0.0000 O   0  0  0  0  0  0  0  0  0  0  0  0
    9.9806   -3.2575    0.0000 O   0  0  0  0  0  0  0  0  0  0  0  0
    8.6781   -2.5136    0.0000 C   0  0  0  0  0  0  0  0  0  0  0  0
    7.9342   -3.8161    0.0000 C   0  0  0  0  0  0  0  0  0  0  0  0
    9.4220   -1.2110    0.0000 C   0  0  0  0  0  0  0  0  0  0  0  0
    7.3755   -1.7697    0.0000 C   0  0  0  0  0  0  0  0  0  0  0  0
    6.0081   -2.3862    0.0000 C   0  0  0  0  0  0  0  0  0  0  0  0
    7.2117   -0.2787    0.0000 O   0  0  0  0  0  0  0  0  0  0  0  0
    5.7308    2.6244    0.0000 C   0  0  0  0  0  0  0  0  0  0  0  0
    7.2308    2.6314    0.0000 C   0  0  0  0  0  0  0  0  0  0  0  0
    7.9747    3.9340    0.0000 C   0  0  0  0  0  0  0  0  0  0  0  0
    6.6721    4.6778    0.0000 O   0  0  0  0  0  0  0  0  0  0  0  0
    9.2772    3.1901    0.0000 C   0  0  0  0  0  0  0  0  0  0  0  0
    8.7186    5.2365    0.0000 C   0  0  0  0  0  0  0  0  0  0  0  0
   -1.0130    1.2936    0.0000 C   0  0  0  0  0  0  0  0  0  0  0  0
   -1.0200    2.7936    0.0000 C   0  0  0  0  0  0  0  0  0  0  0  0
   -1.0059   -0.2064    0.0000 C   0  0  0  0  0  0  0  0  0  0  0  0
   -2.5130    1.2865    0.0000 C   0  0  0  0  0  0  0  0  0  0  0  0
   -3.2569   -0.0160    0.0000 C   0  0  0  0  0  0  0  0  0  0  0  0
    0.6480   -1.0369    0.0000 H   0  0  0  0  0  0  0  0  0  0  0  0
  1  2  1  0  0  0  0
  1  6  2  0  0  0  0
  2  3  2  0  0  0  0
  3  4  1  0  0  0  0
  4  5  2  0  0  0  0
  5  6  1  0  0  0  0
  5 11  1  0  0  0  0
  6  7  1  0  0  0  0
  7  8  2  0  0  0  0
  8  9  1  0  0  0  0
  9 10  2  0  0  0  0
  9 11  1  0  0  0  0
  1 12  1  0  0  0  0
 13 14  1  0  0  0  0
 14 15  2  0  0  0  0
 14 16  1  0  0  0  0
 16 17  1  0  0  0  0
 17 18  1  0  0  0  0
 17 19  1  0  0  0  0
 17 20  1  0  0  0  0
 20 21  1  0  0  0  0
 20 22  1  0  0  0  0
  2 21  1  0  0  0  0
  3 22  1  0  0  0  0
 23 24  2  0  0  0  0
 24 25  1  0  0  0  0
 25 26  1  0  0  0  0
 25 27  1  0  0  0  0
 25 28  1  0  0  0  0
  4 23  1  0  0  0  0
 29 30  1  0  0  0  0
 29 31  1  0  0  0  0
 29 32  1  0  0  0  0
 32 33  2  0  0  0  0
  8 29  1  0  0  0  0
  7 34  1  0  0  0  0
M  END
> <score_KierFlex>
0.516271

$$$$
suggested molecule #712
 MOE2019            2D

 45 47  0  0  0  0  0  0  0  0999 V2000
    3.4992   -1.2833    0.0000 C   0  0  0  0  0  0  0  0  0  1  0  0
    4.9992   -1.2762    0.0000 C   0  0  0  0  0  0  0  0  0  2  0  0
    5.7430    0.0263    0.0000 C   0  0  0  0  0  0  0  0  0  3  0  0
    4.9869    1.3218    0.0000 C   0  0  0  0  0  0  0  0  0  4  0  0
    3.4870    1.3147    0.0000 C   0  0  0  0  0  0  0  0  0  5  0  0
    2.7431    0.0122    0.0000 C   0  0  0  0  0  0  0  0  0  6  0  0
    1.2431    0.0051    0.0000 C   0  0  0  0  0  0  0  0  0  7  0  0
    0.4870    1.3006    0.0000 C   0  0  0  0  0  0  0  0  0  8  0  0
    1.2309    2.6032    0.0000 C   0  0  0  0  0  0  0  0  0  9  0  0
    0.4748    3.8987    0.0000 O   0  0  0  0  0  0  0  0  0 10  0  0
    2.7309    2.6102    0.0000 O   0  0  0  0  0  0  0  0  0 11  0  0
    2.9041   -2.3253    0.0000 H   0  0  0  0  0  0  0  0  0  0  0  0
   11.2902   -5.5013    0.0000 C   0  0  0  0  0  0  0  0  0  0  0  0
    9.9877   -4.7574    0.0000 C   0  0  0  0  0  0  0  0  0  0  0  0
    8.6922   -5.5135    0.0000 O   0  0  0  0  0  0  0  0  0  0  0  0
    9.9806   -3.2575    0.0000 O   0  0  0  0  0  0  0  0  0  0  0  0
    8.6781   -2.5136    0.0000 C   0  0  0  0  0  0  0  0  0  0  0  0
    7.9342   -3.8161    0.0000 C   0  0  0  0  0  0  0  0  0  0  0  0
    9.4220   -1.2110    0.0000 C   0  0  0  0  0  0  0  0  0  0  0  0
    7.3755   -1.7697    0.0000 C   0  0  0  0  0  0  0  0  0  0  0  0
    6.0081   -2.3862    0.0000 C   0  0  0  0  0  0  0  0  0  0  0  0
    7.2117   -0.2787    0.0000 O   0  0  0  0  0  0  0  0  0  0  0  0
    0.4544    8.2288    0.0000 C   0  0  0  0  0  0  0  0  0  0  0  0
    1.9544    8.2358    0.0000 C   0  0  0  0  0  0  0  0  0  0  0  0
    2.7105    6.9403    0.0000 C   0  0  0  0  0  0  0  0  0  0  0  0
    4.2105    6.9474    0.0000 C   0  0  0  0  0  0  0  0  0  0  0  0
    1.9666    5.6378    0.0000 C   0  0  0  0  0  0  0  0  0  0  0  0
    0.4666    5.6307    0.0000 O   0  0  0  0  0  0  0  0  0  0  0  0
    2.7227    4.3423    0.0000 O   0  0  0  0  0  0  0  0  0  0  0  0
    4.7227    4.3517    0.0000 C   0  0  0  0  0  0  0  0  0  0  0  0
    5.7308    2.6244    0.0000 C   0  0  0  0  0  0  0  0  0  0  0  0
    6.2104    6.9568    0.0000 O   0  0  0  0  0  0  0  0  0  0  0  0
    5.4666    5.6542    0.0000 C   0  0  0  0  0  0  0  0  0  0  0  0
    4.1640    6.3981    0.0000 C   0  0  0  0  0  0  0  0  0  0  0  0
    6.7691    4.9104    0.0000 C   0  0  0  0  0  0  0  0  0  0  0  0
    7.2308    2.6314    0.0000 O   0  0  0  0  0  0  0  0  0  0  0  0
    7.9747    3.9340    0.0000 C   0  0  0  0  0  0  0  0  0  0  0  0
    9.4747    3.9410    0.0000 O   0  0  0  0  0  0  0  0  0  0  0  0
    7.2186    5.2295    0.0000 C   0  0  0  0  0  0  0  0  0  0  0  0
   -1.0130    1.2936    0.0000 C   0  0  0  0  0  0  0  0  0  0  0  0
   -1.0200    2.7936    0.0000 C   0  0  0  0  0  0  0  0  0  0  0  0
   -1.0059   -0.2064    0.0000 C   0  0  0  0  0  0  0  0  0  0  0  0
   -2.5130    1.2865    0.0000 C   0  0  0  0  0  0  0  0  0  0  0  0
   -3.2569   -0.0160    0.0000 C   0  0  0  0  0  0  0  0  0  0  0  0
    0.6480   -1.0369    0.0000 H   0  0  0  0  0  0  0  0  0  0  0  0
  1  2  2  0  0  0  0
  1  6  1  0  0  0  0
  2  3  1  0  0  0  0
  3  4  2  0  0  0  0
  4  5  1  0  0  0  0
  5  6  2  0  0  0  0
  5 11  1  0  0  0  0
  6  7  1  0  0  0  0
  7  8  2  0  0  0  0
  8  9  1  0  0  0  0
  9 10  2  0  0  0  0
  9 11  1  0  0  0  0
  1 12  1  0  0  0  0
 13 14  1  0  0  0  0
 14 15  2  0  0  0  0
 14 16  1  0  0  0  0
 16 17  1  0  0  0  0
 17 18  1  0  0  0  0
 17 19  1  0  0  0  0
 17 20  1  0  0  0  0
 20 21  1  0  0  0  0
 20 22  1  0  0  0  0
  2 21  1  0  0  0  0
  3 22  1  0  0  0  0
 23 24  1  0  0  0  0
 24 25  2  0  0  0  0
 25 26  1  0  0  0  0
 25 27  1  0  0  0  0
 27 28  2  0  0  0  0
 27 29  1  0  0  0  0
 29 30  1  0  0  0  0
 30 31  1  0  0  0  0
 30 33  1  0  0  0  0
 31 36  1  0  0  0  0
 32 33  1  0  0  0  0
 33 34  1  0  0  0  0
 33 35  1  0  0  0  0
 36 37  1  0  0  0  0
 37 38  2  0  0  0  0
 37 39  1  0  0  0  0
  4 31  1  0  0  0  0
 40 41  1  0  0  0  0
 40 42  1  0  0  0  0
 40 43  1  0  0  0  0
 43 44  2  0  0  0  0
  8 40  1  0  0  0  0
  7 45  1  0  0  0  0
M  END
> <score_Kier1>
0.517727

$$$$
suggested molecule #713
 MOE2019            2D

 45 47  0  0  0  0  0  0  0  0999 V2000
    3.4992   -1.2833    0.0000 C   0  0  0  0  0  0  0  0  0  1  0  0
    4.9992   -1.2762    0.0000 C   0  0  0  0  0  0  0  0  0  2  0  0
    5.7430    0.0263    0.0000 C   0  0  0  0  0  0  0  0  0  3  0  0
    4.9869    1.3218    0.0000 C   0  0  0  0  0  0  0  0  0  4  0  0
    3.4870    1.3147    0.0000 C   0  0  0  0  0  0  0  0  0  5  0  0
    2.7431    0.0122    0.0000 C   0  0  0  0  0  0  0  0  0  6  0  0
    1.2431    0.0051    0.0000 C   0  0  0  0  0  0  0  0  0  7  0  0
    0.4870    1.3006    0.0000 C   0  0  0  0  0  0  0  0  0  8  0  0
    1.2309    2.6032    0.0000 C   0  0  0  0  0  0  0  0  0  9  0  0
    0.4748    3.8987    0.0000 O   0  0  0  0  0  0  0  0  0 10  0  0
    2.7309    2.6102    0.0000 O   0  0  0  0  0  0  0  0  0 11  0  0
    2.9041   -2.3253    0.0000 H   0  0  0  0  0  0  0  0  0  0  0  0
   11.2902   -5.5013    0.0000 C   0  0  0  0  0  0  0  0  0  0  0  0
    9.9877   -4.7574    0.0000 C   0  0  0  0  0  0  0  0  0  0  0  0
    8.6922   -5.5135    0.0000 O   0  0  0  0  0  0  0  0  0  0  0  0
    9.9806   -3.2575    0.0000 O   0  0  0  0  0  0  0  0  0  0  0  0
    8.6781   -2.5136    0.0000 C   0  0  0  0  0  0  0  0  0  0  0  0
    7.9342   -3.8161    0.0000 C   0  0  0  0  0  0  0  0  0  0  0  0
    9.4220   -1.2110    0.0000 C   0  0  0  0  0  0  0  0  0  0  0  0
    7.3755   -1.7697    0.0000 C   0  0  0  0  0  0  0  0  0  0  0  0
    6.0081   -2.3862    0.0000 C   0  0  0  0  0  0  0  0  0  0  0  0
    7.2117   -0.2787    0.0000 O   0  0  0  0  0  0  0  0  0  0  0  0
    0.4544    8.2288    0.0000 C   0  0  0  0  0  0  0  0  0  0  0  0
    1.9544    8.2358    0.0000 C   0  0  0  0  0  0  0  0  0  0  0  0
    2.7105    6.9403    0.0000 C   0  0  0  0  0  0  0  0  0  0  0  0
    4.2105    6.9474    0.0000 C   0  0  0  0  0  0  0  0  0  0  0  0
    1.9666    5.6378    0.0000 C   0  0  0  0  0  0  0  0  0  0  0  0
    0.4666    5.6307    0.0000 O   0  0  0  0  0  0  0  0  0  0  0  0
    2.7227    4.3423    0.0000 O   0  0  0  0  0  0  0  0  0  0  0  0
    4.7227    4.3517    0.0000 C   0  0  0  0  0  0  0  0  0  0  0  0
    5.7308    2.6244    0.0000 C   0  0  0  0  0  0  0  0  0  0  0  0
    6.2104    6.9568    0.0000 O   0  0  0  0  0  0  0  0  0  0  0  0
    5.4666    5.6542    0.0000 C   0  0  0  0  0  0  0  0  0  0  0  0
    4.1640    6.3981    0.0000 C   0  0  0  0  0  0  0  0  0  0  0  0
    6.7691    4.9104    0.0000 C   0  0  0  0  0  0  0  0  0  0  0  0
    7.2308    2.6314    0.0000 O   0  0  0  0  0  0  0  0  0  0  0  0
    7.9747    3.9340    0.0000 C   0  0  0  0  0  0  0  0  0  0  0  0
    9.4747    3.9410    0.0000 O   0  0  0  0  0  0  0  0  0  0  0  0
    7.2186    5.2295    0.0000 C   0  0  0  0  0  0  0  0  0  0  0  0
   -1.0130    1.2936    0.0000 C   0  0  0  0  0  0  0  0  0  0  0  0
   -1.0200    2.7936    0.0000 C   0  0  0  0  0  0  0  0  0  0  0  0
   -1.0059   -0.2064    0.0000 C   0  0  0  0  0  0  0  0  0  0  0  0
   -2.5130    1.2865    0.0000 C   0  0  0  0  0  0  0  0  0  0  0  0
   -3.2569   -0.0160    0.0000 C   0  0  0  0  0  0  0  0  0  0  0  0
    0.6480   -1.0369    0.0000 H   0  0  0  0  0  0  0  0  0  0  0  0
  1  2  2  0  0  0  0
  1  6  1  0  0  0  0
  2  3  1  0  0  0  0
  3  4  2  0  0  0  0
  4  5  1  0  0  0  0
  5  6  2  0  0  0  0
  5 11  1  0  0  0  0
  6  7  1  0  0  0  0
  7  8  2  0  0  0  0
  8  9  1  0  0  0  0
  9 10  2  0  0  0  0
  9 11  1  0  0  0  0
  1 12  1  0  0  0  0
 13 14  1  0  0  0  0
 14 15  2  0  0  0  0
 14 16  1  0  0  0  0
 16 17  1  0  0  0  0
 17 18  1  0  0  0  0
 17 19  1  0  0  0  0
 17 20  1  0  0  0  0
 20 21  1  0  0  0  0
 20 22  1  0  0  0  0
  2 21  1  0  0  0  0
  3 22  1  0  0  0  0
 23 24  1  0  0  0  0
 24 25  2  0  0  0  0
 25 26  1  0  0  0  0
 25 27  1  0  0  0  0
 27 28  2  0  0  0  0
 27 29  1  0  0  0  0
 29 30  1  0  0  0  0
 30 31  1  0  0  0  0
 30 33  1  0  0  0  0
 31 36  1  0  0  0  0
 32 33  1  0  0  0  0
 33 34  1  0  0  0  0
 33 35  1  0  0  0  0
 36 37  1  0  0  0  0
 37 38  2  0  0  0  0
 37 39  1  0  0  0  0
  4 31  1  0  0  0  0
 40 41  1  0  0  0  0
 40 42  1  0  0  0  0
 40 43  1  0  0  0  0
 43 44  2  0  0  0  0
  8 40  1  0  0  0  0
  7 45  1  0  0  0  0
M  END
> <score_Kier2>
0.516501

$$$$
suggested molecule #714
 MOE2019            2D

 45 47  0  0  0  0  0  0  0  0999 V2000
    3.4992   -1.2833    0.0000 C   0  0  0  0  0  0  0  0  0  1  0  0
    4.9992   -1.2762    0.0000 C   0  0  0  0  0  0  0  0  0  2  0  0
    5.7430    0.0263    0.0000 C   0  0  0  0  0  0  0  0  0  3  0  0
    4.9869    1.3218    0.0000 C   0  0  0  0  0  0  0  0  0  4  0  0
    3.4870    1.3147    0.0000 C   0  0  0  0  0  0  0  0  0  5  0  0
    2.7431    0.0122    0.0000 C   0  0  0  0  0  0  0  0  0  6  0  0
    1.2431    0.0051    0.0000 C   0  0  0  0  0  0  0  0  0  7  0  0
    0.4870    1.3006    0.0000 C   0  0  0  0  0  0  0  0  0  8  0  0
    1.2309    2.6032    0.0000 C   0  0  0  0  0  0  0  0  0  9  0  0
    0.4748    3.8987    0.0000 O   0  0  0  0  0  0  0  0  0 10  0  0
    2.7309    2.6102    0.0000 O   0  0  0  0  0  0  0  0  0 11  0  0
    2.9041   -2.3253    0.0000 H   0  0  0  0  0  0  0  0  0  0  0  0
   11.2902   -5.5013    0.0000 C   0  0  0  0  0  0  0  0  0  0  0  0
    9.9877   -4.7574    0.0000 C   0  0  0  0  0  0  0  0  0  0  0  0
    8.6922   -5.5135    0.0000 O   0  0  0  0  0  0  0  0  0  0  0  0
    9.9806   -3.2575    0.0000 O   0  0  0  0  0  0  0  0  0  0  0  0
    8.6781   -2.5136    0.0000 C   0  0  0  0  0  0  0  0  0  0  0  0
    7.9342   -3.8161    0.0000 C   0  0  0  0  0  0  0  0  0  0  0  0
    9.4220   -1.2110    0.0000 C   0  0  0  0  0  0  0  0  0  0  0  0
    7.3755   -1.7697    0.0000 C   0  0  0  0  0  0  0  0  0  0  0  0
    6.0081   -2.3862    0.0000 C   0  0  0  0  0  0  0  0  0  0  0  0
    7.2117   -0.2787    0.0000 O   0  0  0  0  0  0  0  0  0  0  0  0
    0.4544    8.2288    0.0000 C   0  0  0  0  0  0  0  0  0  0  0  0
    1.9544    8.2358    0.0000 C   0  0  0  0  0  0  0  0  0  0  0  0
    2.7105    6.9403    0.0000 C   0  0  0  0  0  0  0  0  0  0  0  0
    4.2105    6.9474    0.0000 C   0  0  0  0  0  0  0  0  0  0  0  0
    1.9666    5.6378    0.0000 C   0  0  0  0  0  0  0  0  0  0  0  0
    0.4666    5.6307    0.0000 O   0  0  0  0  0  0  0  0  0  0  0  0
    2.7227    4.3423    0.0000 O   0  0  0  0  0  0  0  0  0  0  0  0
    4.7227    4.3517    0.0000 C   0  0  0  0  0  0  0  0  0  0  0  0
    5.7308    2.6244    0.0000 C   0  0  0  0  0  0  0  0  0  0  0  0
    6.2104    6.9568    0.0000 O   0  0  0  0  0  0  0  0  0  0  0  0
    5.4666    5.6542    0.0000 C   0  0  0  0  0  0  0  0  0  0  0  0
    4.1640    6.3981    0.0000 C   0  0  0  0  0  0  0  0  0  0  0  0
    6.7691    4.9104    0.0000 C   0  0  0  0  0  0  0  0  0  0  0  0
    7.2308    2.6314    0.0000 O   0  0  0  0  0  0  0  0  0  0  0  0
    7.9747    3.9340    0.0000 C   0  0  0  0  0  0  0  0  0  0  0  0
    9.4747    3.9410    0.0000 O   0  0  0  0  0  0  0  0  0  0  0  0
    7.2186    5.2295    0.0000 C   0  0  0  0  0  0  0  0  0  0  0  0
   -1.0130    1.2936    0.0000 C   0  0  0  0  0  0  0  0  0  0  0  0
   -1.0200    2.7936    0.0000 C   0  0  0  0  0  0  0  0  0  0  0  0
   -1.0059   -0.2064    0.0000 C   0  0  0  0  0  0  0  0  0  0  0  0
   -2.5130    1.2865    0.0000 C   0  0  0  0  0  0  0  0  0  0  0  0
   -3.2569   -0.0160    0.0000 C   0  0  0  0  0  0  0  0  0  0  0  0
    0.6480   -1.0369    0.0000 H   0  0  0  0  0  0  0  0  0  0  0  0
  1  2  2  0  0  0  0
  1  6  1  0  0  0  0
  2  3  1  0  0  0  0
  3  4  2  0  0  0  0
  4  5  1  0  0  0  0
  5  6  2  0  0  0  0
  5 11  1  0  0  0  0
  6  7  1  0  0  0  0
  7  8  2  0  0  0  0
  8  9  1  0  0  0  0
  9 10  2  0  0  0  0
  9 11  1  0  0  0  0
  1 12  1  0  0  0  0
 13 14  1  0  0  0  0
 14 15  2  0  0  0  0
 14 16  1  0  0  0  0
 16 17  1  0  0  0  0
 17 18  1  0  0  0  0
 17 19  1  0  0  0  0
 17 20  1  0  0  0  0
 20 21  1  0  0  0  0
 20 22  1  0  0  0  0
  2 21  1  0  0  0  0
  3 22  1  0  0  0  0
 23 24  1  0  0  0  0
 24 25  2  0  0  0  0
 25 26  1  0  0  0  0
 25 27  1  0  0  0  0
 27 28  2  0  0  0  0
 27 29  1  0  0  0  0
 29 30  1  0  0  0  0
 30 31  1  0  0  0  0
 30 33  1  0  0  0  0
 31 36  1  0  0  0  0
 32 33  1  0  0  0  0
 33 34  1  0  0  0  0
 33 35  1  0  0  0  0
 36 37  1  0  0  0  0
 37 38  2  0  0  0  0
 37 39  1  0  0  0  0
  4 31  1  0  0  0  0
 40 41  1  0  0  0  0
 40 42  1  0  0  0  0
 40 43  1  0  0  0  0
 43 44  2  0  0  0  0
  8 40  1  0  0  0  0
  7 45  1  0  0  0  0
M  END
> <score_KierA2>
0.516715

$$$$
suggested molecule #715
 MOE2019            2D

 33 35  0  0  0  0  0  0  0  0999 V2000
    3.4992   -1.2833    0.0000 C   0  0  0  0  0  0  0  0  0  1  0  0
    4.9992   -1.2762    0.0000 C   0  0  0  0  0  0  0  0  0  2  0  0
    5.7430    0.0263    0.0000 C   0  0  0  0  0  0  0  0  0  3  0  0
    4.9869    1.3218    0.0000 C   0  0  0  0  0  0  0  0  0  4  0  0
    3.4870    1.3147    0.0000 C   0  0  0  0  0  0  0  0  0  5  0  0
    2.7431    0.0122    0.0000 C   0  0  0  0  0  0  0  0  0  6  0  0
    1.2431    0.0051    0.0000 C   0  0  0  0  0  0  0  0  0  7  0  0
    0.4870    1.3006    0.0000 C   0  0  0  0  0  0  0  0  0  8  0  0
    1.2309    2.6032    0.0000 C   0  0  0  0  0  0  0  0  0  9  0  0
    0.4748    3.8987    0.0000 O   0  0  0  0  0  0  0  0  0 10  0  0
    2.7309    2.6102    0.0000 O   0  0  0  0  0  0  0  0  0 11  0  0
    2.9041   -2.3253    0.0000 H   0  0  0  0  0  0  0  0  0  0  0  0
   11.2902   -5.5013    0.0000 C   0  0  0  0  0  0  0  0  0  0  0  0
    9.9877   -4.7574    0.0000 C   0  0  0  0  0  0  0  0  0  0  0  0
    8.6922   -5.5135    0.0000 O   0  0  0  0  0  0  0  0  0  0  0  0
    9.9806   -3.2575    0.0000 O   0  0  0  0  0  0  0  0  0  0  0  0
    8.6781   -2.5136    0.0000 C   0  0  0  0  0  0  0  0  0  0  0  0
    7.9342   -3.8161    0.0000 C   0  0  0  0  0  0  0  0  0  0  0  0
    9.4220   -1.2110    0.0000 C   0  0  0  0  0  0  0  0  0  0  0  0
    7.3755   -1.7697    0.0000 C   0  0  0  0  0  0  0  0  0  0  0  0
    6.0081   -2.3862    0.0000 C   0  0  0  0  0  0  0  0  0  0  0  0
    7.2117   -0.2787    0.0000 O   0  0  0  0  0  0  0  0  0  0  0  0
    5.7308    2.6244    0.0000 C   0  0  0  0  0  0  0  0  0  0  0  0
    7.0334    1.8805    0.0000 C   0  0  0  0  0  0  0  0  0  0  0  0
    4.4283    3.3682    0.0000 C   0  0  0  0  0  0  0  0  0  0  0  0
    6.4747    3.9269    0.0000 C   0  0  0  0  0  0  0  0  0  0  0  0
    7.9747    3.9340    0.0000 C   0  0  0  0  0  0  0  0  0  0  0  0
   -1.0130    1.2936    0.0000 C   0  0  0  0  0  0  0  0  0  0  0  0
   -1.0059   -0.2064    0.0000 C   0  0  0  0  0  0  0  0  0  0  0  0
   -1.0200    2.7936    0.0000 C   0  0  0  0  0  0  0  0  0  0  0  0
   -2.5130    1.2865    0.0000 C   0  0  0  0  0  0  0  0  0  0  0  0
   -3.2569   -0.0160    0.0000 C   0  0  0  0  0  0  0  0  0  0  0  0
    0.6480   -1.0369    0.0000 H   0  0  0  0  0  0  0  0  0  0  0  0
  1  2  1  0  0  0  0
  1  6  2  0  0  0  0
  2  3  2  0  0  0  0
  3  4  1  0  0  0  0
  4  5  2  0  0  0  0
  5  6  1  0  0  0  0
  5 11  1  0  0  0  0
  6  7  1  0  0  0  0
  7  8  2  0  0  0  0
  8  9  1  0  0  0  0
  9 10  2  0  0  0  0
  9 11  1  0  0  0  0
  1 12  1  0  0  0  0
 13 14  1  0  0  0  0
 14 15  2  0  0  0  0
 14 16  1  0  0  0  0
 16 17  1  0  0  0  0
 17 18  1  0  0  0  0
 17 19  1  0  0  0  0
 17 20  1  0  0  0  0
 20 21  1  0  0  0  0
 20 22  1  0  0  0  0
  2 21  1  0  0  0  0
  3 22  1  0  0  0  0
 23 24  1  0  0  0  0
 23 25  1  0  0  0  0
 23 26  1  0  0  0  0
 26 27  2  0  0  0  0
  4 23  1  0  0  0  0
 28 29  1  0  0  0  0
 28 30  1  0  0  0  0
 28 31  1  0  0  0  0
 31 32  2  0  0  0  0
  8 28  1  0  0  0  0
  7 33  1  0  0  0  0
M  END
> <score_Kier1>
0.517759

$$$$
suggested molecule #716
 MOE2019            2D

 33 35  0  0  0  0  0  0  0  0999 V2000
    3.4992   -1.2833    0.0000 C   0  0  0  0  0  0  0  0  0  1  0  0
    4.9992   -1.2762    0.0000 C   0  0  0  0  0  0  0  0  0  2  0  0
    5.7430    0.0263    0.0000 C   0  0  0  0  0  0  0  0  0  3  0  0
    4.9869    1.3218    0.0000 C   0  0  0  0  0  0  0  0  0  4  0  0
    3.4870    1.3147    0.0000 C   0  0  0  0  0  0  0  0  0  5  0  0
    2.7431    0.0122    0.0000 C   0  0  0  0  0  0  0  0  0  6  0  0
    1.2431    0.0051    0.0000 C   0  0  0  0  0  0  0  0  0  7  0  0
    0.4870    1.3006    0.0000 C   0  0  0  0  0  0  0  0  0  8  0  0
    1.2309    2.6032    0.0000 C   0  0  0  0  0  0  0  0  0  9  0  0
    0.4748    3.8987    0.0000 O   0  0  0  0  0  0  0  0  0 10  0  0
    2.7309    2.6102    0.0000 O   0  0  0  0  0  0  0  0  0 11  0  0
    2.9041   -2.3253    0.0000 H   0  0  0  0  0  0  0  0  0  0  0  0
   11.2902   -5.5013    0.0000 C   0  0  0  0  0  0  0  0  0  0  0  0
    9.9877   -4.7574    0.0000 C   0  0  0  0  0  0  0  0  0  0  0  0
    8.6922   -5.5135    0.0000 O   0  0  0  0  0  0  0  0  0  0  0  0
    9.9806   -3.2575    0.0000 O   0  0  0  0  0  0  0  0  0  0  0  0
    8.6781   -2.5136    0.0000 C   0  0  0  0  0  0  0  0  0  0  0  0
    7.9342   -3.8161    0.0000 C   0  0  0  0  0  0  0  0  0  0  0  0
    9.4220   -1.2110    0.0000 C   0  0  0  0  0  0  0  0  0  0  0  0
    7.3755   -1.7697    0.0000 C   0  0  0  0  0  0  0  0  0  0  0  0
    6.0081   -2.3862    0.0000 C   0  0  0  0  0  0  0  0  0  0  0  0
    7.2117   -0.2787    0.0000 O   0  0  0  0  0  0  0  0  0  0  0  0
    5.7308    2.6244    0.0000 C   0  0  0  0  0  0  0  0  0  0  0  0
    7.0334    1.8805    0.0000 C   0  0  0  0  0  0  0  0  0  0  0  0
    4.4283    3.3682    0.0000 C   0  0  0  0  0  0  0  0  0  0  0  0
    6.4747    3.9269    0.0000 C   0  0  0  0  0  0  0  0  0  0  0  0
    7.9747    3.9340    0.0000 C   0  0  0  0  0  0  0  0  0  0  0  0
   -1.0130    1.2936    0.0000 C   0  0  0  0  0  0  0  0  0  0  0  0
   -1.0059   -0.2064    0.0000 C   0  0  0  0  0  0  0  0  0  0  0  0
   -1.0200    2.7936    0.0000 C   0  0  0  0  0  0  0  0  0  0  0  0
   -2.5130    1.2865    0.0000 C   0  0  0  0  0  0  0  0  0  0  0  0
   -3.2569   -0.0160    0.0000 C   0  0  0  0  0  0  0  0  0  0  0  0
    0.6480   -1.0369    0.0000 H   0  0  0  0  0  0  0  0  0  0  0  0
  1  2  1  0  0  0  0
  1  6  2  0  0  0  0
  2  3  2  0  0  0  0
  3  4  1  0  0  0  0
  4  5  2  0  0  0  0
  5  6  1  0  0  0  0
  5 11  1  0  0  0  0
  6  7  1  0  0  0  0
  7  8  2  0  0  0  0
  8  9  1  0  0  0  0
  9 10  2  0  0  0  0
  9 11  1  0  0  0  0
  1 12  1  0  0  0  0
 13 14  1  0  0  0  0
 14 15  2  0  0  0  0
 14 16  1  0  0  0  0
 16 17  1  0  0  0  0
 17 18  1  0  0  0  0
 17 19  1  0  0  0  0
 17 20  1  0  0  0  0
 20 21  1  0  0  0  0
 20 22  1  0  0  0  0
  2 21  1  0  0  0  0
  3 22  1  0  0  0  0
 23 24  1  0  0  0  0
 23 25  1  0  0  0  0
 23 26  1  0  0  0  0
 26 27  2  0  0  0  0
  4 23  1  0  0  0  0
 28 29  1  0  0  0  0
 28 30  1  0  0  0  0
 28 31  1  0  0  0  0
 31 32  2  0  0  0  0
  8 28  1  0  0  0  0
  7 33  1  0  0  0  0
M  END
> <score_Kier2>
0.516546

$$$$
suggested molecule #717
 MOE2019            2D

 33 35  0  0  0  0  0  0  0  0999 V2000
    3.4992   -1.2833    0.0000 C   0  0  0  0  0  0  0  0  0  1  0  0
    4.9992   -1.2762    0.0000 C   0  0  0  0  0  0  0  0  0  2  0  0
    5.7430    0.0263    0.0000 C   0  0  0  0  0  0  0  0  0  3  0  0
    4.9869    1.3218    0.0000 C   0  0  0  0  0  0  0  0  0  4  0  0
    3.4870    1.3147    0.0000 C   0  0  0  0  0  0  0  0  0  5  0  0
    2.7431    0.0122    0.0000 C   0  0  0  0  0  0  0  0  0  6  0  0
    1.2431    0.0051    0.0000 C   0  0  0  0  0  0  0  0  0  7  0  0
    0.4870    1.3006    0.0000 C   0  0  0  0  0  0  0  0  0  8  0  0
    1.2309    2.6032    0.0000 C   0  0  0  0  0  0  0  0  0  9  0  0
    0.4748    3.8987    0.0000 O   0  0  0  0  0  0  0  0  0 10  0  0
    2.7309    2.6102    0.0000 O   0  0  0  0  0  0  0  0  0 11  0  0
    2.9041   -2.3253    0.0000 H   0  0  0  0  0  0  0  0  0  0  0  0
   11.2902   -5.5013    0.0000 C   0  0  0  0  0  0  0  0  0  0  0  0
    9.9877   -4.7574    0.0000 C   0  0  0  0  0  0  0  0  0  0  0  0
    8.6922   -5.5135    0.0000 O   0  0  0  0  0  0  0  0  0  0  0  0
    9.9806   -3.2575    0.0000 O   0  0  0  0  0  0  0  0  0  0  0  0
    8.6781   -2.5136    0.0000 C   0  0  0  0  0  0  0  0  0  0  0  0
    7.9342   -3.8161    0.0000 C   0  0  0  0  0  0  0  0  0  0  0  0
    9.4220   -1.2110    0.0000 C   0  0  0  0  0  0  0  0  0  0  0  0
    7.3755   -1.7697    0.0000 C   0  0  0  0  0  0  0  0  0  0  0  0
    6.0081   -2.3862    0.0000 C   0  0  0  0  0  0  0  0  0  0  0  0
    7.2117   -0.2787    0.0000 O   0  0  0  0  0  0  0  0  0  0  0  0
    5.7308    2.6244    0.0000 C   0  0  0  0  0  0  0  0  0  0  0  0
    7.0334    1.8805    0.0000 C   0  0  0  0  0  0  0  0  0  0  0  0
    4.4283    3.3682    0.0000 C   0  0  0  0  0  0  0  0  0  0  0  0
    6.4747    3.9269    0.0000 C   0  0  0  0  0  0  0  0  0  0  0  0
    7.9747    3.9340    0.0000 C   0  0  0  0  0  0  0  0  0  0  0  0
   -1.0130    1.2936    0.0000 C   0  0  0  0  0  0  0  0  0  0  0  0
   -1.0059   -0.2064    0.0000 C   0  0  0  0  0  0  0  0  0  0  0  0
   -1.0200    2.7936    0.0000 C   0  0  0  0  0  0  0  0  0  0  0  0
   -2.5130    1.2865    0.0000 C   0  0  0  0  0  0  0  0  0  0  0  0
   -3.2569   -0.0160    0.0000 C   0  0  0  0  0  0  0  0  0  0  0  0
    0.6480   -1.0369    0.0000 H   0  0  0  0  0  0  0  0  0  0  0  0
  1  2  1  0  0  0  0
  1  6  2  0  0  0  0
  2  3  2  0  0  0  0
  3  4  1  0  0  0  0
  4  5  2  0  0  0  0
  5  6  1  0  0  0  0
  5 11  1  0  0  0  0
  6  7  1  0  0  0  0
  7  8  2  0  0  0  0
  8  9  1  0  0  0  0
  9 10  2  0  0  0  0
  9 11  1  0  0  0  0
  1 12  1  0  0  0  0
 13 14  1  0  0  0  0
 14 15  2  0  0  0  0
 14 16  1  0  0  0  0
 16 17  1  0  0  0  0
 17 18  1  0  0  0  0
 17 19  1  0  0  0  0
 17 20  1  0  0  0  0
 20 21  1  0  0  0  0
 20 22  1  0  0  0  0
  2 21  1  0  0  0  0
  3 22  1  0  0  0  0
 23 24  1  0  0  0  0
 23 25  1  0  0  0  0
 23 26  1  0  0  0  0
 26 27  2  0  0  0  0
  4 23  1  0  0  0  0
 28 29  1  0  0  0  0
 28 30  1  0  0  0  0
 28 31  1  0  0  0  0
 31 32  2  0  0  0  0
  8 28  1  0  0  0  0
  7 33  1  0  0  0  0
M  END
> <score_KierA1>
0.517611

$$$$
suggested molecule #718
 MOE2019            2D

 33 35  0  0  0  0  0  0  0  0999 V2000
    3.4992   -1.2833    0.0000 C   0  0  0  0  0  0  0  0  0  1  0  0
    4.9992   -1.2762    0.0000 C   0  0  0  0  0  0  0  0  0  2  0  0
    5.7430    0.0263    0.0000 C   0  0  0  0  0  0  0  0  0  3  0  0
    4.9869    1.3218    0.0000 C   0  0  0  0  0  0  0  0  0  4  0  0
    3.4870    1.3147    0.0000 C   0  0  0  0  0  0  0  0  0  5  0  0
    2.7431    0.0122    0.0000 C   0  0  0  0  0  0  0  0  0  6  0  0
    1.2431    0.0051    0.0000 C   0  0  0  0  0  0  0  0  0  7  0  0
    0.4870    1.3006    0.0000 C   0  0  0  0  0  0  0  0  0  8  0  0
    1.2309    2.6032    0.0000 C   0  0  0  0  0  0  0  0  0  9  0  0
    0.4748    3.8987    0.0000 O   0  0  0  0  0  0  0  0  0 10  0  0
    2.7309    2.6102    0.0000 O   0  0  0  0  0  0  0  0  0 11  0  0
    2.9041   -2.3253    0.0000 H   0  0  0  0  0  0  0  0  0  0  0  0
   11.2902   -5.5013    0.0000 C   0  0  0  0  0  0  0  0  0  0  0  0
    9.9877   -4.7574    0.0000 C   0  0  0  0  0  0  0  0  0  0  0  0
    8.6922   -5.5135    0.0000 O   0  0  0  0  0  0  0  0  0  0  0  0
    9.9806   -3.2575    0.0000 O   0  0  0  0  0  0  0  0  0  0  0  0
    8.6781   -2.5136    0.0000 C   0  0  0  0  0  0  0  0  0  0  0  0
    7.9342   -3.8161    0.0000 C   0  0  0  0  0  0  0  0  0  0  0  0
    9.4220   -1.2110    0.0000 C   0  0  0  0  0  0  0  0  0  0  0  0
    7.3755   -1.7697    0.0000 C   0  0  0  0  0  0  0  0  0  0  0  0
    6.0081   -2.3862    0.0000 C   0  0  0  0  0  0  0  0  0  0  0  0
    7.2117   -0.2787    0.0000 O   0  0  0  0  0  0  0  0  0  0  0  0
    5.7308    2.6244    0.0000 C   0  0  0  0  0  0  0  0  0  0  0  0
    7.0334    1.8805    0.0000 C   0  0  0  0  0  0  0  0  0  0  0  0
    4.4283    3.3682    0.0000 C   0  0  0  0  0  0  0  0  0  0  0  0
    6.4747    3.9269    0.0000 C   0  0  0  0  0  0  0  0  0  0  0  0
    7.9747    3.9340    0.0000 C   0  0  0  0  0  0  0  0  0  0  0  0
   -1.0130    1.2936    0.0000 C   0  0  0  0  0  0  0  0  0  0  0  0
   -1.0059   -0.2064    0.0000 C   0  0  0  0  0  0  0  0  0  0  0  0
   -1.0200    2.7936    0.0000 C   0  0  0  0  0  0  0  0  0  0  0  0
   -2.5130    1.2865    0.0000 C   0  0  0  0  0  0  0  0  0  0  0  0
   -3.2569   -0.0160    0.0000 C   0  0  0  0  0  0  0  0  0  0  0  0
    0.6480   -1.0369    0.0000 H   0  0  0  0  0  0  0  0  0  0  0  0
  1  2  1  0  0  0  0
  1  6  2  0  0  0  0
  2  3  2  0  0  0  0
  3  4  1  0  0  0  0
  4  5  2  0  0  0  0
  5  6  1  0  0  0  0
  5 11  1  0  0  0  0
  6  7  1  0  0  0  0
  7  8  2  0  0  0  0
  8  9  1  0  0  0  0
  9 10  2  0  0  0  0
  9 11  1  0  0  0  0
  1 12  1  0  0  0  0
 13 14  1  0  0  0  0
 14 15  2  0  0  0  0
 14 16  1  0  0  0  0
 16 17  1  0  0  0  0
 17 18  1  0  0  0  0
 17 19  1  0  0  0  0
 17 20  1  0  0  0  0
 20 21  1  0  0  0  0
 20 22  1  0  0  0  0
  2 21  1  0  0  0  0
  3 22  1  0  0  0  0
 23 24  1  0  0  0  0
 23 25  1  0  0  0  0
 23 26  1  0  0  0  0
 26 27  2  0  0  0  0
  4 23  1  0  0  0  0
 28 29  1  0  0  0  0
 28 30  1  0  0  0  0
 28 31  1  0  0  0  0
 31 32  2  0  0  0  0
  8 28  1  0  0  0  0
  7 33  1  0  0  0  0
M  END
> <score_KierA2>
0.51676

$$$$
suggested molecule #719
 MOE2019            2D

 45 47  0  0  1  0  0  0  0  0999 V2000
    3.4992   -1.2833    0.0000 C   0  0  0  0  0  0  0  0  0  1  0  0
    4.9992   -1.2762    0.0000 C   0  0  0  0  0  0  0  0  0  2  0  0
    5.7430    0.0263    0.0000 C   0  0  0  0  0  0  0  0  0  3  0  0
    4.9869    1.3218    0.0000 C   0  0  0  0  0  0  0  0  0  4  0  0
    3.4870    1.3147    0.0000 C   0  0  0  0  0  0  0  0  0  5  0  0
    2.7431    0.0122    0.0000 C   0  0  0  0  0  0  0  0  0  6  0  0
    1.2431    0.0051    0.0000 C   0  0  0  0  0  0  0  0  0  7  0  0
    0.4870    1.3006    0.0000 C   0  0  0  0  0  0  0  0  0  8  0  0
    1.2309    2.6032    0.0000 C   0  0  0  0  0  0  0  0  0  9  0  0
    0.4748    3.8987    0.0000 O   0  0  0  0  0  0  0  0  0 10  0  0
    2.7309    2.6102    0.0000 O   0  0  0  0  0  0  0  0  0 11  0  0
    2.9041   -2.3253    0.0000 H   0  0  0  0  0  0  0  0  0  0  0  0
    8.6922   -5.5135    0.0000 C   0  0  0  0  0  0  0  0  0  0  0  0
    9.9877   -4.7574    0.0000 C   0  0  0  0  0  0  0  0  0  0  0  0
   11.2902   -5.5013    0.0000 O   0  0  0  0  0  0  0  0  0  0  0  0
    9.9806   -3.2575    0.0000 O   0  0  0  0  0  0  0  0  0  0  0  0
    8.6781   -2.5136    0.0000 C   0  0  0  0  0  0  0  0  0  0  0  0
    9.4220   -1.2110    0.0000 C   0  0  0  0  0  0  0  0  0  0  0  0
    7.9342   -3.8161    0.0000 C   0  0  0  0  0  0  0  0  0  0  0  0
    7.3755   -1.7697    0.0000 C   0  0  0  0  0  0  0  0  0  0  0  0
    6.0081   -2.3862    0.0000 C   0  0  0  0  0  0  0  0  0  0  0  0
    7.2117   -0.2787    0.0000 O   0  0  0  0  0  0  0  0  0  0  0  0
   10.2063    7.8416    0.0000 C   0  0  0  0  0  0  0  0  0  0  0  0
    9.4625    6.5391    0.0000 C   0  0  0  0  0  0  0  0  0  0  0  0
   10.2186    5.2436    0.0000 C   0  0  0  0  0  0  0  0  0  0  0  0
   11.7185    5.2506    0.0000 C   0  0  0  0  0  0  0  0  0  0  0  0
    9.4747    3.9410    0.0000 C   0  0  0  0  0  0  0  0  0  0  0  0
   10.2308    2.6455    0.0000 O   0  0  0  0  0  0  0  0  0  0  0  0
    7.9747    3.9340    0.0000 O   0  0  0  0  0  0  0  0  0  0  0  0
    7.2308    2.6314    0.0000 C   0  0  2  0  0  0  0  0  0  0  0  0
    5.7308    2.6244    0.0000 C   0  0  0  0  0  0  0  0  0  0  0  0
    8.7430    0.0404    0.0000 O   0  0  0  0  0  0  0  0  0  0  0  0
    7.9869    1.3359    0.0000 C   0  0  0  0  0  0  0  0  0  0  0  0
    9.2824    2.0920    0.0000 C   0  0  0  0  0  0  0  0  0  0  0  0
    6.6914    0.5798    0.0000 C   0  0  0  0  0  0  0  0  0  0  0  0
    4.9747    3.9198    0.0000 O   0  0  0  0  0  0  0  0  0  0  0  0
    5.7186    5.2224    0.0000 C   0  0  0  0  0  0  0  0  0  0  0  0
    7.2186    5.2295    0.0000 O   0  0  0  0  0  0  0  0  0  0  0  0
    4.9625    6.5179    0.0000 C   0  0  0  0  0  0  0  0  0  0  0  0
   -1.0130    1.2936    0.0000 C   0  0  0  0  0  0  0  0  0  0  0  0
   -1.0059   -0.2064    0.0000 C   0  0  0  0  0  0  0  0  0  0  0  0
   -1.0200    2.7936    0.0000 C   0  0  0  0  0  0  0  0  0  0  0  0
   -2.5130    1.2865    0.0000 C   0  0  0  0  0  0  0  0  0  0  0  0
   -3.2569   -0.0160    0.0000 C   0  0  0  0  0  0  0  0  0  0  0  0
    0.6480   -1.0369    0.0000 H   0  0  0  0  0  0  0  0  0  0  0  0
  1  2  2  0  0  0  0
  1  6  1  0  0  0  0
  2  3  1  0  0  0  0
  3  4  2  0  0  0  0
  4  5  1  0  0  0  0
  5  6  2  0  0  0  0
  5 11  1  0  0  0  0
  6  7  1  0  0  0  0
  7  8  2  0  0  0  0
  8  9  1  0  0  0  0
  9 10  2  0  0  0  0
  9 11  1  0  0  0  0
  1 12  1  0  0  0  0
 13 14  1  0  0  0  0
 14 15  2  0  0  0  0
 14 16  1  0  0  0  0
 16 17  1  0  0  0  0
 17 18  1  0  0  0  0
 17 19  1  0  0  0  0
 17 20  1  0  0  0  0
 20 21  1  0  0  0  0
 20 22  1  0  0  0  0
  2 21  1  0  0  0  0
  3 22  1  0  0  0  0
 23 24  1  0  0  0  0
 24 25  1  0  0  0  0
 25 26  1  0  0  0  0
 25 27  1  0  0  0  0
 27 28  2  0  0  0  0
 27 29  1  0  0  0  0
 30 29  1  1  0  0  0
 30 31  1  0  0  0  0
 30 33  1  0  0  0  0
 31 36  1  0  0  0  0
 32 33  1  0  0  0  0
 33 34  1  0  0  0  0
 33 35  1  0  0  0  0
 36 37  1  0  0  0  0
 37 38  2  0  0  0  0
 37 39  1  0  0  0  0
  4 31  1  0  0  0  0
 40 41  1  0  0  0  0
 40 42  1  0  0  0  0
 40 43  1  0  0  0  0
 43 44  2  0  0  0  0
  8 40  1  0  0  0  0
  7 45  1  0  0  0  0
M  END
> <score_Kier1>
0.517727

$$$$
suggested molecule #720
 MOE2019            2D

 45 47  0  0  1  0  0  0  0  0999 V2000
    3.4992   -1.2833    0.0000 C   0  0  0  0  0  0  0  0  0  1  0  0
    4.9992   -1.2762    0.0000 C   0  0  0  0  0  0  0  0  0  2  0  0
    5.7430    0.0263    0.0000 C   0  0  0  0  0  0  0  0  0  3  0  0
    4.9869    1.3218    0.0000 C   0  0  0  0  0  0  0  0  0  4  0  0
    3.4870    1.3147    0.0000 C   0  0  0  0  0  0  0  0  0  5  0  0
    2.7431    0.0122    0.0000 C   0  0  0  0  0  0  0  0  0  6  0  0
    1.2431    0.0051    0.0000 C   0  0  0  0  0  0  0  0  0  7  0  0
    0.4870    1.3006    0.0000 C   0  0  0  0  0  0  0  0  0  8  0  0
    1.2309    2.6032    0.0000 C   0  0  0  0  0  0  0  0  0  9  0  0
    0.4748    3.8987    0.0000 O   0  0  0  0  0  0  0  0  0 10  0  0
    2.7309    2.6102    0.0000 O   0  0  0  0  0  0  0  0  0 11  0  0
    2.9041   -2.3253    0.0000 H   0  0  0  0  0  0  0  0  0  0  0  0
    8.6922   -5.5135    0.0000 C   0  0  0  0  0  0  0  0  0  0  0  0
    9.9877   -4.7574    0.0000 C   0  0  0  0  0  0  0  0  0  0  0  0
   11.2902   -5.5013    0.0000 O   0  0  0  0  0  0  0  0  0  0  0  0
    9.9806   -3.2575    0.0000 O   0  0  0  0  0  0  0  0  0  0  0  0
    8.6781   -2.5136    0.0000 C   0  0  0  0  0  0  0  0  0  0  0  0
    9.4220   -1.2110    0.0000 C   0  0  0  0  0  0  0  0  0  0  0  0
    7.9342   -3.8161    0.0000 C   0  0  0  0  0  0  0  0  0  0  0  0
    7.3755   -1.7697    0.0000 C   0  0  0  0  0  0  0  0  0  0  0  0
    6.0081   -2.3862    0.0000 C   0  0  0  0  0  0  0  0  0  0  0  0
    7.2117   -0.2787    0.0000 O   0  0  0  0  0  0  0  0  0  0  0  0
   10.2063    7.8416    0.0000 C   0  0  0  0  0  0  0  0  0  0  0  0
    9.4625    6.5391    0.0000 C   0  0  0  0  0  0  0  0  0  0  0  0
   10.2186    5.2436    0.0000 C   0  0  0  0  0  0  0  0  0  0  0  0
   11.7185    5.2506    0.0000 C   0  0  0  0  0  0  0  0  0  0  0  0
    9.4747    3.9410    0.0000 C   0  0  0  0  0  0  0  0  0  0  0  0
   10.2308    2.6455    0.0000 O   0  0  0  0  0  0  0  0  0  0  0  0
    7.9747    3.9340    0.0000 O   0  0  0  0  0  0  0  0  0  0  0  0
    7.2308    2.6314    0.0000 C   0  0  2  0  0  0  0  0  0  0  0  0
    5.7308    2.6244    0.0000 C   0  0  0  0  0  0  0  0  0  0  0  0
    8.7430    0.0404    0.0000 O   0  0  0  0  0  0  0  0  0  0  0  0
    7.9869    1.3359    0.0000 C   0  0  0  0  0  0  0  0  0  0  0  0
    9.2824    2.0920    0.0000 C   0  0  0  0  0  0  0  0  0  0  0  0
    6.6914    0.5798    0.0000 C   0  0  0  0  0  0  0  0  0  0  0  0
    4.9747    3.9198    0.0000 O   0  0  0  0  0  0  0  0  0  0  0  0
    5.7186    5.2224    0.0000 C   0  0  0  0  0  0  0  0  0  0  0  0
    7.2186    5.2295    0.0000 O   0  0  0  0  0  0  0  0  0  0  0  0
    4.9625    6.5179    0.0000 C   0  0  0  0  0  0  0  0  0  0  0  0
   -1.0130    1.2936    0.0000 C   0  0  0  0  0  0  0  0  0  0  0  0
   -1.0059   -0.2064    0.0000 C   0  0  0  0  0  0  0  0  0  0  0  0
   -1.0200    2.7936    0.0000 C   0  0  0  0  0  0  0  0  0  0  0  0
   -2.5130    1.2865    0.0000 C   0  0  0  0  0  0  0  0  0  0  0  0
   -3.2569   -0.0160    0.0000 C   0  0  0  0  0  0  0  0  0  0  0  0
    0.6480   -1.0369    0.0000 H   0  0  0  0  0  0  0  0  0  0  0  0
  1  2  2  0  0  0  0
  1  6  1  0  0  0  0
  2  3  1  0  0  0  0
  3  4  2  0  0  0  0
  4  5  1  0  0  0  0
  5  6  2  0  0  0  0
  5 11  1  0  0  0  0
  6  7  1  0  0  0  0
  7  8  2  0  0  0  0
  8  9  1  0  0  0  0
  9 10  2  0  0  0  0
  9 11  1  0  0  0  0
  1 12  1  0  0  0  0
 13 14  1  0  0  0  0
 14 15  2  0  0  0  0
 14 16  1  0  0  0  0
 16 17  1  0  0  0  0
 17 18  1  0  0  0  0
 17 19  1  0  0  0  0
 17 20  1  0  0  0  0
 20 21  1  0  0  0  0
 20 22  1  0  0  0  0
  2 21  1  0  0  0  0
  3 22  1  0  0  0  0
 23 24  1  0  0  0  0
 24 25  1  0  0  0  0
 25 26  1  0  0  0  0
 25 27  1  0  0  0  0
 27 28  2  0  0  0  0
 27 29  1  0  0  0  0
 30 29  1  1  0  0  0
 30 31  1  0  0  0  0
 30 33  1  0  0  0  0
 31 36  1  0  0  0  0
 32 33  1  0  0  0  0
 33 34  1  0  0  0  0
 33 35  1  0  0  0  0
 36 37  1  0  0  0  0
 37 38  2  0  0  0  0
 37 39  1  0  0  0  0
  4 31  1  0  0  0  0
 40 41  1  0  0  0  0
 40 42  1  0  0  0  0
 40 43  1  0  0  0  0
 43 44  2  0  0  0  0
  8 40  1  0  0  0  0
  7 45  1  0  0  0  0
M  END
> <score_Kier2>
0.516501

$$$$
suggested molecule #721
 MOE2019            2D

 45 47  0  0  1  0  0  0  0  0999 V2000
    3.4992   -1.2833    0.0000 C   0  0  0  0  0  0  0  0  0  1  0  0
    4.9992   -1.2762    0.0000 C   0  0  0  0  0  0  0  0  0  2  0  0
    5.7430    0.0263    0.0000 C   0  0  0  0  0  0  0  0  0  3  0  0
    4.9869    1.3218    0.0000 C   0  0  0  0  0  0  0  0  0  4  0  0
    3.4870    1.3147    0.0000 C   0  0  0  0  0  0  0  0  0  5  0  0
    2.7431    0.0122    0.0000 C   0  0  0  0  0  0  0  0  0  6  0  0
    1.2431    0.0051    0.0000 C   0  0  0  0  0  0  0  0  0  7  0  0
    0.4870    1.3006    0.0000 C   0  0  0  0  0  0  0  0  0  8  0  0
    1.2309    2.6032    0.0000 C   0  0  0  0  0  0  0  0  0  9  0  0
    0.4748    3.8987    0.0000 O   0  0  0  0  0  0  0  0  0 10  0  0
    2.7309    2.6102    0.0000 O   0  0  0  0  0  0  0  0  0 11  0  0
    2.9041   -2.3253    0.0000 H   0  0  0  0  0  0  0  0  0  0  0  0
    8.6922   -5.5135    0.0000 C   0  0  0  0  0  0  0  0  0  0  0  0
    9.9877   -4.7574    0.0000 C   0  0  0  0  0  0  0  0  0  0  0  0
   11.2902   -5.5013    0.0000 O   0  0  0  0  0  0  0  0  0  0  0  0
    9.9806   -3.2575    0.0000 O   0  0  0  0  0  0  0  0  0  0  0  0
    8.6781   -2.5136    0.0000 C   0  0  0  0  0  0  0  0  0  0  0  0
    9.4220   -1.2110    0.0000 C   0  0  0  0  0  0  0  0  0  0  0  0
    7.9342   -3.8161    0.0000 C   0  0  0  0  0  0  0  0  0  0  0  0
    7.3755   -1.7697    0.0000 C   0  0  0  0  0  0  0  0  0  0  0  0
    6.0081   -2.3862    0.0000 C   0  0  0  0  0  0  0  0  0  0  0  0
    7.2117   -0.2787    0.0000 O   0  0  0  0  0  0  0  0  0  0  0  0
   12.3541    7.7046    0.0000 C   0  0  0  0  0  0  0  0  0  0  0  0
   12.3612    6.2046    0.0000 C   0  0  0  0  0  0  0  0  0  0  0  0
   13.6637    5.4607    0.0000 C   0  0  0  0  0  0  0  0  0  0  0  0
   11.0657    5.4485    0.0000 C   0  0  0  0  0  0  0  0  0  0  0  0
   11.0727    3.9485    0.0000 C   0  0  0  0  0  0  0  0  0  0  0  0
   12.3753    3.2046    0.0000 O   0  0  0  0  0  0  0  0  0  0  0  0
    9.7772    3.1924    0.0000 O   0  0  0  0  0  0  0  0  0  0  0  0
    8.4747    3.9363    0.0000 C   0  0  0  0  0  0  0  0  0  0  0  0
    7.1721    4.6802    0.0000 C   0  0  0  0  0  0  0  0  0  0  0  0
    9.2186    5.2389    0.0000 C   0  0  0  0  0  0  0  0  0  0  0  0
    7.7308    2.6338    0.0000 C   0  0  2  0  0  0  0  0  0  0  0  0
    5.7308    2.6244    0.0000 C   0  0  0  0  0  0  0  0  0  0  0  0
    8.4869    1.3383    0.0000 O   0  0  0  0  0  0  0  0  0  0  0  0
    4.9747    3.9198    0.0000 O   0  0  0  0  0  0  0  0  0  0  0  0
    5.7186    5.2224    0.0000 C   0  0  0  0  0  0  0  0  0  0  0  0
    4.9625    6.5179    0.0000 O   0  0  0  0  0  0  0  0  0  0  0  0
    7.2186    5.2295    0.0000 C   0  0  0  0  0  0  0  0  0  0  0  0
   -1.0130    1.2936    0.0000 C   0  0  0  0  0  0  0  0  0  0  0  0
   -1.0059   -0.2064    0.0000 C   0  0  0  0  0  0  0  0  0  0  0  0
   -1.0200    2.7936    0.0000 C   0  0  0  0  0  0  0  0  0  0  0  0
   -2.5130    1.2865    0.0000 C   0  0  0  0  0  0  0  0  0  0  0  0
   -3.2569   -0.0160    0.0000 C   0  0  0  0  0  0  0  0  0  0  0  0
    0.6480   -1.0369    0.0000 H   0  0  0  0  0  0  0  0  0  0  0  0
  1  2  2  0  0  0  0
  1  6  1  0  0  0  0
  2  3  1  0  0  0  0
  3  4  2  0  0  0  0
  4  5  1  0  0  0  0
  5  6  2  0  0  0  0
  5 11  1  0  0  0  0
  6  7  1  0  0  0  0
  7  8  2  0  0  0  0
  8  9  1  0  0  0  0
  9 10  2  0  0  0  0
  9 11  1  0  0  0  0
  1 12  1  0  0  0  0
 13 14  1  0  0  0  0
 14 15  2  0  0  0  0
 14 16  1  0  0  0  0
 16 17  1  0  0  0  0
 17 18  1  0  0  0  0
 17 19  1  0  0  0  0
 17 20  1  0  0  0  0
 20 21  1  0  0  0  0
 20 22  1  0  0  0  0
  2 21  1  0  0  0  0
  3 22  1  0  0  0  0
 23 24  1  0  0  0  0
 24 25  1  0  0  0  0
 24 26  1  0  0  0  0
 26 27  1  0  0  0  0
 27 28  2  0  0  0  0
 27 29  1  0  0  0  0
 29 30  1  0  0  0  0
 30 31  1  0  0  0  0
 30 32  1  0  0  0  0
 33 30  1  1  0  0  0
 33 34  1  0  0  0  0
 33 35  1  0  0  0  0
 34 36  1  0  0  0  0
 36 37  1  0  0  0  0
 37 38  2  0  0  0  0
 37 39  1  0  0  0  0
  4 34  1  0  0  0  0
 40 41  1  0  0  0  0
 40 42  1  0  0  0  0
 40 43  1  0  0  0  0
 43 44  2  0  0  0  0
  8 40  1  0  0  0  0
  7 45  1  0  0  0  0
M  END
> <score_Kier1>
0.517727

$$$$
suggested molecule #722
 MOE2019            2D

 45 47  0  0  1  0  0  0  0  0999 V2000
    3.4992   -1.2833    0.0000 C   0  0  0  0  0  0  0  0  0  1  0  0
    4.9992   -1.2762    0.0000 C   0  0  0  0  0  0  0  0  0  2  0  0
    5.7430    0.0263    0.0000 C   0  0  0  0  0  0  0  0  0  3  0  0
    4.9869    1.3218    0.0000 C   0  0  0  0  0  0  0  0  0  4  0  0
    3.4870    1.3147    0.0000 C   0  0  0  0  0  0  0  0  0  5  0  0
    2.7431    0.0122    0.0000 C   0  0  0  0  0  0  0  0  0  6  0  0
    1.2431    0.0051    0.0000 C   0  0  0  0  0  0  0  0  0  7  0  0
    0.4870    1.3006    0.0000 C   0  0  0  0  0  0  0  0  0  8  0  0
    1.2309    2.6032    0.0000 C   0  0  0  0  0  0  0  0  0  9  0  0
    0.4748    3.8987    0.0000 O   0  0  0  0  0  0  0  0  0 10  0  0
    2.7309    2.6102    0.0000 O   0  0  0  0  0  0  0  0  0 11  0  0
    2.9041   -2.3253    0.0000 H   0  0  0  0  0  0  0  0  0  0  0  0
    8.6922   -5.5135    0.0000 C   0  0  0  0  0  0  0  0  0  0  0  0
    9.9877   -4.7574    0.0000 C   0  0  0  0  0  0  0  0  0  0  0  0
   11.2902   -5.5013    0.0000 O   0  0  0  0  0  0  0  0  0  0  0  0
    9.9806   -3.2575    0.0000 O   0  0  0  0  0  0  0  0  0  0  0  0
    8.6781   -2.5136    0.0000 C   0  0  0  0  0  0  0  0  0  0  0  0
    9.4220   -1.2110    0.0000 C   0  0  0  0  0  0  0  0  0  0  0  0
    7.9342   -3.8161    0.0000 C   0  0  0  0  0  0  0  0  0  0  0  0
    7.3755   -1.7697    0.0000 C   0  0  0  0  0  0  0  0  0  0  0  0
    6.0081   -2.3862    0.0000 C   0  0  0  0  0  0  0  0  0  0  0  0
    7.2117   -0.2787    0.0000 O   0  0  0  0  0  0  0  0  0  0  0  0
   12.3541    7.7046    0.0000 C   0  0  0  0  0  0  0  0  0  0  0  0
   12.3612    6.2046    0.0000 C   0  0  0  0  0  0  0  0  0  0  0  0
   13.6637    5.4607    0.0000 C   0  0  0  0  0  0  0  0  0  0  0  0
   11.0657    5.4485    0.0000 C   0  0  0  0  0  0  0  0  0  0  0  0
   11.0727    3.9485    0.0000 C   0  0  0  0  0  0  0  0  0  0  0  0
   12.3753    3.2046    0.0000 O   0  0  0  0  0  0  0  0  0  0  0  0
    9.7772    3.1924    0.0000 O   0  0  0  0  0  0  0  0  0  0  0  0
    8.4747    3.9363    0.0000 C   0  0  0  0  0  0  0  0  0  0  0  0
    7.1721    4.6802    0.0000 C   0  0  0  0  0  0  0  0  0  0  0  0
    9.2186    5.2389    0.0000 C   0  0  0  0  0  0  0  0  0  0  0  0
    7.7308    2.6338    0.0000 C   0  0  2  0  0  0  0  0  0  0  0  0
    5.7308    2.6244    0.0000 C   0  0  0  0  0  0  0  0  0  0  0  0
    8.4869    1.3383    0.0000 O   0  0  0  0  0  0  0  0  0  0  0  0
    4.9747    3.9198    0.0000 O   0  0  0  0  0  0  0  0  0  0  0  0
    5.7186    5.2224    0.0000 C   0  0  0  0  0  0  0  0  0  0  0  0
    4.9625    6.5179    0.0000 O   0  0  0  0  0  0  0  0  0  0  0  0
    7.2186    5.2295    0.0000 C   0  0  0  0  0  0  0  0  0  0  0  0
   -1.0130    1.2936    0.0000 C   0  0  0  0  0  0  0  0  0  0  0  0
   -1.0059   -0.2064    0.0000 C   0  0  0  0  0  0  0  0  0  0  0  0
   -1.0200    2.7936    0.0000 C   0  0  0  0  0  0  0  0  0  0  0  0
   -2.5130    1.2865    0.0000 C   0  0  0  0  0  0  0  0  0  0  0  0
   -3.2569   -0.0160    0.0000 C   0  0  0  0  0  0  0  0  0  0  0  0
    0.6480   -1.0369    0.0000 H   0  0  0  0  0  0  0  0  0  0  0  0
  1  2  2  0  0  0  0
  1  6  1  0  0  0  0
  2  3  1  0  0  0  0
  3  4  2  0  0  0  0
  4  5  1  0  0  0  0
  5  6  2  0  0  0  0
  5 11  1  0  0  0  0
  6  7  1  0  0  0  0
  7  8  2  0  0  0  0
  8  9  1  0  0  0  0
  9 10  2  0  0  0  0
  9 11  1  0  0  0  0
  1 12  1  0  0  0  0
 13 14  1  0  0  0  0
 14 15  2  0  0  0  0
 14 16  1  0  0  0  0
 16 17  1  0  0  0  0
 17 18  1  0  0  0  0
 17 19  1  0  0  0  0
 17 20  1  0  0  0  0
 20 21  1  0  0  0  0
 20 22  1  0  0  0  0
  2 21  1  0  0  0  0
  3 22  1  0  0  0  0
 23 24  1  0  0  0  0
 24 25  1  0  0  0  0
 24 26  1  0  0  0  0
 26 27  1  0  0  0  0
 27 28  2  0  0  0  0
 27 29  1  0  0  0  0
 29 30  1  0  0  0  0
 30 31  1  0  0  0  0
 30 32  1  0  0  0  0
 33 30  1  1  0  0  0
 33 34  1  0  0  0  0
 33 35  1  0  0  0  0
 34 36  1  0  0  0  0
 36 37  1  0  0  0  0
 37 38  2  0  0  0  0
 37 39  1  0  0  0  0
  4 34  1  0  0  0  0
 40 41  1  0  0  0  0
 40 42  1  0  0  0  0
 40 43  1  0  0  0  0
 43 44  2  0  0  0  0
  8 40  1  0  0  0  0
  7 45  1  0  0  0  0
M  END
> <score_Kier2>
0.516501

$$$$
suggested molecule #723
 MOE2019            2D

 34 36  0  0  0  0  0  0  0  0999 V2000
    3.4992   -1.2833    0.0000 C   0  0  0  0  0  0  0  0  0  1  0  0
    4.9992   -1.2762    0.0000 C   0  0  0  0  0  0  0  0  0  2  0  0
    5.7430    0.0263    0.0000 C   0  0  0  0  0  0  0  0  0  3  0  0
    4.9869    1.3218    0.0000 C   0  0  0  0  0  0  0  0  0  4  0  0
    3.4870    1.3147    0.0000 C   0  0  0  0  0  0  0  0  0  5  0  0
    2.7431    0.0122    0.0000 C   0  0  0  0  0  0  0  0  0  6  0  0
    1.2431    0.0051    0.0000 C   0  0  0  0  0  0  0  0  0  7  0  0
    0.4870    1.3006    0.0000 C   0  0  0  0  0  0  0  0  0  8  0  0
    1.2309    2.6032    0.0000 C   0  0  0  0  0  0  0  0  0  9  0  0
    0.4748    3.8987    0.0000 O   0  0  0  0  0  0  0  0  0 10  0  0
    2.7309    2.6102    0.0000 O   0  0  0  0  0  0  0  0  0 11  0  0
    2.9041   -2.3253    0.0000 H   0  0  0  0  0  0  0  0  0  0  0  0
   11.2902   -5.5013    0.0000 C   0  0  0  0  0  0  0  0  0  0  0  0
    9.9877   -4.7574    0.0000 C   0  0  0  0  0  0  0  0  0  0  0  0
    8.6922   -5.5135    0.0000 O   0  0  0  0  0  0  0  0  0  0  0  0
    9.9806   -3.2575    0.0000 O   0  0  0  0  0  0  0  0  0  0  0  0
    8.6781   -2.5136    0.0000 C   0  0  0  0  0  0  0  0  0  0  0  0
    9.4220   -1.2110    0.0000 C   0  0  0  0  0  0  0  0  0  0  0  0
    7.9342   -3.8161    0.0000 C   0  0  0  0  0  0  0  0  0  0  0  0
    7.3755   -1.7697    0.0000 C   0  0  0  0  0  0  0  0  0  0  0  0
    6.0081   -2.3862    0.0000 C   0  0  0  0  0  0  0  0  0  0  0  0
    7.2117   -0.2787    0.0000 O   0  0  0  0  0  0  0  0  0  0  0  0
    9.4747    3.9410    0.0000 C   0  0  0  0  0  0  0  0  0  0  0  0
    7.9747    3.9340    0.0000 C   0  0  0  0  0  0  0  0  0  0  0  0
    7.2186    5.2295    0.0000 C   0  0  0  0  0  0  0  0  0  0  0  0
    7.2308    2.6314    0.0000 C   0  0  0  0  0  0  0  0  0  0  0  0
    5.7308    2.6244    0.0000 C   0  0  0  0  0  0  0  0  0  0  0  0
    7.9869    1.3359    0.0000 O   0  0  0  0  0  0  0  0  0  0  0  0
   -1.0130    1.2936    0.0000 C   0  0  0  0  0  0  0  0  0  0  0  0
   -1.0200    2.7936    0.0000 C   0  0  0  0  0  0  0  0  0  0  0  0
   -1.0059   -0.2064    0.0000 C   0  0  0  0  0  0  0  0  0  0  0  0
   -2.5130    1.2865    0.0000 C   0  0  0  0  0  0  0  0  0  0  0  0
   -3.2569   -0.0160    0.0000 C   0  0  0  0  0  0  0  0  0  0  0  0
    0.6480   -1.0369    0.0000 H   0  0  0  0  0  0  0  0  0  0  0  0
  1  2  1  0  0  0  0
  1  6  2  0  0  0  0
  2  3  2  0  0  0  0
  3  4  1  0  0  0  0
  4  5  2  0  0  0  0
  5  6  1  0  0  0  0
  5 11  1  0  0  0  0
  6  7  1  0  0  0  0
  7  8  2  0  0  0  0
  8  9  1  0  0  0  0
  9 10  2  0  0  0  0
  9 11  1  0  0  0  0
  1 12  1  0  0  0  0
 13 14  1  0  0  0  0
 14 15  2  0  0  0  0
 14 16  1  0  0  0  0
 16 17  1  0  0  0  0
 17 18  1  0  0  0  0
 17 19  1  0  0  0  0
 17 20  1  0  0  0  0
 20 21  1  0  0  0  0
 20 22  1  0  0  0  0
  2 21  1  0  0  0  0
  3 22  1  0  0  0  0
 23 24  1  0  0  0  0
 24 25  2  0  0  0  0
 24 26  1  0  0  0  0
 26 27  1  0  0  0  0
 26 28  1  0  0  0  0
  4 27  1  0  0  0  0
 29 30  1  0  0  0  0
 29 31  1  0  0  0  0
 29 32  1  0  0  0  0
 32 33  2  0  0  0  0
  8 29  1  0  0  0  0
  7 34  1  0  0  0  0
M  END
> <score_Kier1>
0.517738

$$$$
suggested molecule #724
 MOE2019            2D

 34 36  0  0  0  0  0  0  0  0999 V2000
    3.4992   -1.2833    0.0000 C   0  0  0  0  0  0  0  0  0  1  0  0
    4.9992   -1.2762    0.0000 C   0  0  0  0  0  0  0  0  0  2  0  0
    5.7430    0.0263    0.0000 C   0  0  0  0  0  0  0  0  0  3  0  0
    4.9869    1.3218    0.0000 C   0  0  0  0  0  0  0  0  0  4  0  0
    3.4870    1.3147    0.0000 C   0  0  0  0  0  0  0  0  0  5  0  0
    2.7431    0.0122    0.0000 C   0  0  0  0  0  0  0  0  0  6  0  0
    1.2431    0.0051    0.0000 C   0  0  0  0  0  0  0  0  0  7  0  0
    0.4870    1.3006    0.0000 C   0  0  0  0  0  0  0  0  0  8  0  0
    1.2309    2.6032    0.0000 C   0  0  0  0  0  0  0  0  0  9  0  0
    0.4748    3.8987    0.0000 O   0  0  0  0  0  0  0  0  0 10  0  0
    2.7309    2.6102    0.0000 O   0  0  0  0  0  0  0  0  0 11  0  0
    2.9041   -2.3253    0.0000 H   0  0  0  0  0  0  0  0  0  0  0  0
   11.2902   -5.5013    0.0000 C   0  0  0  0  0  0  0  0  0  0  0  0
    9.9877   -4.7574    0.0000 C   0  0  0  0  0  0  0  0  0  0  0  0
    8.6922   -5.5135    0.0000 O   0  0  0  0  0  0  0  0  0  0  0  0
    9.9806   -3.2575    0.0000 O   0  0  0  0  0  0  0  0  0  0  0  0
    8.6781   -2.5136    0.0000 C   0  0  0  0  0  0  0  0  0  0  0  0
    9.4220   -1.2110    0.0000 C   0  0  0  0  0  0  0  0  0  0  0  0
    7.9342   -3.8161    0.0000 C   0  0  0  0  0  0  0  0  0  0  0  0
    7.3755   -1.7697    0.0000 C   0  0  0  0  0  0  0  0  0  0  0  0
    6.0081   -2.3862    0.0000 C   0  0  0  0  0  0  0  0  0  0  0  0
    7.2117   -0.2787    0.0000 O   0  0  0  0  0  0  0  0  0  0  0  0
    9.4747    3.9410    0.0000 C   0  0  0  0  0  0  0  0  0  0  0  0
    7.9747    3.9340    0.0000 C   0  0  0  0  0  0  0  0  0  0  0  0
    7.2186    5.2295    0.0000 C   0  0  0  0  0  0  0  0  0  0  0  0
    7.2308    2.6314    0.0000 C   0  0  0  0  0  0  0  0  0  0  0  0
    5.7308    2.6244    0.0000 C   0  0  0  0  0  0  0  0  0  0  0  0
    7.9869    1.3359    0.0000 O   0  0  0  0  0  0  0  0  0  0  0  0
   -1.0130    1.2936    0.0000 C   0  0  0  0  0  0  0  0  0  0  0  0
   -1.0200    2.7936    0.0000 C   0  0  0  0  0  0  0  0  0  0  0  0
   -1.0059   -0.2064    0.0000 C   0  0  0  0  0  0  0  0  0  0  0  0
   -2.5130    1.2865    0.0000 C   0  0  0  0  0  0  0  0  0  0  0  0
   -3.2569   -0.0160    0.0000 C   0  0  0  0  0  0  0  0  0  0  0  0
    0.6480   -1.0369    0.0000 H   0  0  0  0  0  0  0  0  0  0  0  0
  1  2  1  0  0  0  0
  1  6  2  0  0  0  0
  2  3  2  0  0  0  0
  3  4  1  0  0  0  0
  4  5  2  0  0  0  0
  5  6  1  0  0  0  0
  5 11  1  0  0  0  0
  6  7  1  0  0  0  0
  7  8  2  0  0  0  0
  8  9  1  0  0  0  0
  9 10  2  0  0  0  0
  9 11  1  0  0  0  0
  1 12  1  0  0  0  0
 13 14  1  0  0  0  0
 14 15  2  0  0  0  0
 14 16  1  0  0  0  0
 16 17  1  0  0  0  0
 17 18  1  0  0  0  0
 17 19  1  0  0  0  0
 17 20  1  0  0  0  0
 20 21  1  0  0  0  0
 20 22  1  0  0  0  0
  2 21  1  0  0  0  0
  3 22  1  0  0  0  0
 23 24  1  0  0  0  0
 24 25  2  0  0  0  0
 24 26  1  0  0  0  0
 26 27  1  0  0  0  0
 26 28  1  0  0  0  0
  4 27  1  0  0  0  0
 29 30  1  0  0  0  0
 29 31  1  0  0  0  0
 29 32  1  0  0  0  0
 32 33  2  0  0  0  0
  8 29  1  0  0  0  0
  7 34  1  0  0  0  0
M  END
> <score_Kier2>
0.516512

$$$$
suggested molecule #725
 MOE2019            2D

 34 36  0  0  0  0  0  0  0  0999 V2000
    3.4992   -1.2833    0.0000 C   0  0  0  0  0  0  0  0  0  1  0  0
    4.9992   -1.2762    0.0000 C   0  0  0  0  0  0  0  0  0  2  0  0
    5.7430    0.0263    0.0000 C   0  0  0  0  0  0  0  0  0  3  0  0
    4.9869    1.3218    0.0000 C   0  0  0  0  0  0  0  0  0  4  0  0
    3.4870    1.3147    0.0000 C   0  0  0  0  0  0  0  0  0  5  0  0
    2.7431    0.0122    0.0000 C   0  0  0  0  0  0  0  0  0  6  0  0
    1.2431    0.0051    0.0000 C   0  0  0  0  0  0  0  0  0  7  0  0
    0.4870    1.3006    0.0000 C   0  0  0  0  0  0  0  0  0  8  0  0
    1.2309    2.6032    0.0000 C   0  0  0  0  0  0  0  0  0  9  0  0
    0.4748    3.8987    0.0000 O   0  0  0  0  0  0  0  0  0 10  0  0
    2.7309    2.6102    0.0000 O   0  0  0  0  0  0  0  0  0 11  0  0
    2.9041   -2.3253    0.0000 H   0  0  0  0  0  0  0  0  0  0  0  0
   11.2902   -5.5013    0.0000 C   0  0  0  0  0  0  0  0  0  0  0  0
    9.9877   -4.7574    0.0000 C   0  0  0  0  0  0  0  0  0  0  0  0
    8.6922   -5.5135    0.0000 O   0  0  0  0  0  0  0  0  0  0  0  0
    9.9806   -3.2575    0.0000 O   0  0  0  0  0  0  0  0  0  0  0  0
    8.6781   -2.5136    0.0000 C   0  0  0  0  0  0  0  0  0  0  0  0
    9.4220   -1.2110    0.0000 C   0  0  0  0  0  0  0  0  0  0  0  0
    7.9342   -3.8161    0.0000 C   0  0  0  0  0  0  0  0  0  0  0  0
    7.3755   -1.7697    0.0000 C   0  0  0  0  0  0  0  0  0  0  0  0
    6.0081   -2.3862    0.0000 C   0  0  0  0  0  0  0  0  0  0  0  0
    7.2117   -0.2787    0.0000 O   0  0  0  0  0  0  0  0  0  0  0  0
    9.4747    3.9410    0.0000 C   0  0  0  0  0  0  0  0  0  0  0  0
    7.9747    3.9340    0.0000 C   0  0  0  0  0  0  0  0  0  0  0  0
    7.2186    5.2295    0.0000 C   0  0  0  0  0  0  0  0  0  0  0  0
    7.2308    2.6314    0.0000 C   0  0  0  0  0  0  0  0  0  0  0  0
    5.7308    2.6244    0.0000 C   0  0  0  0  0  0  0  0  0  0  0  0
    7.9869    1.3359    0.0000 O   0  0  0  0  0  0  0  0  0  0  0  0
   -1.0130    1.2936    0.0000 C   0  0  0  0  0  0  0  0  0  0  0  0
   -1.0200    2.7936    0.0000 C   0  0  0  0  0  0  0  0  0  0  0  0
   -1.0059   -0.2064    0.0000 C   0  0  0  0  0  0  0  0  0  0  0  0
   -2.5130    1.2865    0.0000 C   0  0  0  0  0  0  0  0  0  0  0  0
   -3.2569   -0.0160    0.0000 C   0  0  0  0  0  0  0  0  0  0  0  0
    0.6480   -1.0369    0.0000 H   0  0  0  0  0  0  0  0  0  0  0  0
  1  2  1  0  0  0  0
  1  6  2  0  0  0  0
  2  3  2  0  0  0  0
  3  4  1  0  0  0  0
  4  5  2  0  0  0  0
  5  6  1  0  0  0  0
  5 11  1  0  0  0  0
  6  7  1  0  0  0  0
  7  8  2  0  0  0  0
  8  9  1  0  0  0  0
  9 10  2  0  0  0  0
  9 11  1  0  0  0  0
  1 12  1  0  0  0  0
 13 14  1  0  0  0  0
 14 15  2  0  0  0  0
 14 16  1  0  0  0  0
 16 17  1  0  0  0  0
 17 18  1  0  0  0  0
 17 19  1  0  0  0  0
 17 20  1  0  0  0  0
 20 21  1  0  0  0  0
 20 22  1  0  0  0  0
  2 21  1  0  0  0  0
  3 22  1  0  0  0  0
 23 24  1  0  0  0  0
 24 25  2  0  0  0  0
 24 26  1  0  0  0  0
 26 27  1  0  0  0  0
 26 28  1  0  0  0  0
  4 27  1  0  0  0  0
 29 30  1  0  0  0  0
 29 31  1  0  0  0  0
 29 32  1  0  0  0  0
 32 33  2  0  0  0  0
  8 29  1  0  0  0  0
  7 34  1  0  0  0  0
M  END
> <score_KierA1>
0.517591

$$$$
suggested molecule #726
 MOE2019            2D

 34 36  0  0  0  0  0  0  0  0999 V2000
    3.4992   -1.2833    0.0000 C   0  0  0  0  0  0  0  0  0  1  0  0
    4.9992   -1.2762    0.0000 C   0  0  0  0  0  0  0  0  0  2  0  0
    5.7430    0.0263    0.0000 C   0  0  0  0  0  0  0  0  0  3  0  0
    4.9869    1.3218    0.0000 C   0  0  0  0  0  0  0  0  0  4  0  0
    3.4870    1.3147    0.0000 C   0  0  0  0  0  0  0  0  0  5  0  0
    2.7431    0.0122    0.0000 C   0  0  0  0  0  0  0  0  0  6  0  0
    1.2431    0.0051    0.0000 C   0  0  0  0  0  0  0  0  0  7  0  0
    0.4870    1.3006    0.0000 C   0  0  0  0  0  0  0  0  0  8  0  0
    1.2309    2.6032    0.0000 C   0  0  0  0  0  0  0  0  0  9  0  0
    0.4748    3.8987    0.0000 O   0  0  0  0  0  0  0  0  0 10  0  0
    2.7309    2.6102    0.0000 O   0  0  0  0  0  0  0  0  0 11  0  0
    2.9041   -2.3253    0.0000 H   0  0  0  0  0  0  0  0  0  0  0  0
   11.2902   -5.5013    0.0000 C   0  0  0  0  0  0  0  0  0  0  0  0
    9.9877   -4.7574    0.0000 C   0  0  0  0  0  0  0  0  0  0  0  0
    8.6922   -5.5135    0.0000 O   0  0  0  0  0  0  0  0  0  0  0  0
    9.9806   -3.2575    0.0000 O   0  0  0  0  0  0  0  0  0  0  0  0
    8.6781   -2.5136    0.0000 C   0  0  0  0  0  0  0  0  0  0  0  0
    9.4220   -1.2110    0.0000 C   0  0  0  0  0  0  0  0  0  0  0  0
    7.9342   -3.8161    0.0000 C   0  0  0  0  0  0  0  0  0  0  0  0
    7.3755   -1.7697    0.0000 C   0  0  0  0  0  0  0  0  0  0  0  0
    6.0081   -2.3862    0.0000 C   0  0  0  0  0  0  0  0  0  0  0  0
    7.2117   -0.2787    0.0000 O   0  0  0  0  0  0  0  0  0  0  0  0
    9.4747    3.9410    0.0000 C   0  0  0  0  0  0  0  0  0  0  0  0
    7.9747    3.9340    0.0000 C   0  0  0  0  0  0  0  0  0  0  0  0
    7.2186    5.2295    0.0000 C   0  0  0  0  0  0  0  0  0  0  0  0
    7.2308    2.6314    0.0000 C   0  0  0  0  0  0  0  0  0  0  0  0
    5.7308    2.6244    0.0000 C   0  0  0  0  0  0  0  0  0  0  0  0
    7.9869    1.3359    0.0000 O   0  0  0  0  0  0  0  0  0  0  0  0
   -1.0130    1.2936    0.0000 C   0  0  0  0  0  0  0  0  0  0  0  0
   -1.0200    2.7936    0.0000 C   0  0  0  0  0  0  0  0  0  0  0  0
   -1.0059   -0.2064    0.0000 C   0  0  0  0  0  0  0  0  0  0  0  0
   -2.5130    1.2865    0.0000 C   0  0  0  0  0  0  0  0  0  0  0  0
   -3.2569   -0.0160    0.0000 C   0  0  0  0  0  0  0  0  0  0  0  0
    0.6480   -1.0369    0.0000 H   0  0  0  0  0  0  0  0  0  0  0  0
  1  2  1  0  0  0  0
  1  6  2  0  0  0  0
  2  3  2  0  0  0  0
  3  4  1  0  0  0  0
  4  5  2  0  0  0  0
  5  6  1  0  0  0  0
  5 11  1  0  0  0  0
  6  7  1  0  0  0  0
  7  8  2  0  0  0  0
  8  9  1  0  0  0  0
  9 10  2  0  0  0  0
  9 11  1  0  0  0  0
  1 12  1  0  0  0  0
 13 14  1  0  0  0  0
 14 15  2  0  0  0  0
 14 16  1  0  0  0  0
 16 17  1  0  0  0  0
 17 18  1  0  0  0  0
 17 19  1  0  0  0  0
 17 20  1  0  0  0  0
 20 21  1  0  0  0  0
 20 22  1  0  0  0  0
  2 21  1  0  0  0  0
  3 22  1  0  0  0  0
 23 24  1  0  0  0  0
 24 25  2  0  0  0  0
 24 26  1  0  0  0  0
 26 27  1  0  0  0  0
 26 28  1  0  0  0  0
  4 27  1  0  0  0  0
 29 30  1  0  0  0  0
 29 31  1  0  0  0  0
 29 32  1  0  0  0  0
 32 33  2  0  0  0  0
  8 29  1  0  0  0  0
  7 34  1  0  0  0  0
M  END
> <score_KierA2>
0.516727

$$$$
suggested molecule #727
 MOE2019            2D

 34 36  0  0  0  0  0  0  0  0999 V2000
    3.4992   -1.2833    0.0000 C   0  0  0  0  0  0  0  0  0  1  0  0
    4.9992   -1.2762    0.0000 C   0  0  0  0  0  0  0  0  0  2  0  0
    5.7430    0.0263    0.0000 C   0  0  0  0  0  0  0  0  0  3  0  0
    4.9869    1.3218    0.0000 C   0  0  0  0  0  0  0  0  0  4  0  0
    3.4870    1.3147    0.0000 C   0  0  0  0  0  0  0  0  0  5  0  0
    2.7431    0.0122    0.0000 C   0  0  0  0  0  0  0  0  0  6  0  0
    1.2431    0.0051    0.0000 C   0  0  0  0  0  0  0  0  0  7  0  0
    0.4870    1.3006    0.0000 C   0  0  0  0  0  0  0  0  0  8  0  0
    1.2309    2.6032    0.0000 C   0  0  0  0  0  0  0  0  0  9  0  0
    0.4748    3.8987    0.0000 O   0  0  0  0  0  0  0  0  0 10  0  0
    2.7309    2.6102    0.0000 O   0  0  0  0  0  0  0  0  0 11  0  0
    2.9041   -2.3253    0.0000 H   0  0  0  0  0  0  0  0  0  0  0  0
   11.2902   -5.5013    0.0000 C   0  0  0  0  0  0  0  0  0  0  0  0
    9.9877   -4.7574    0.0000 C   0  0  0  0  0  0  0  0  0  0  0  0
    8.6922   -5.5135    0.0000 O   0  0  0  0  0  0  0  0  0  0  0  0
    9.9806   -3.2575    0.0000 O   0  0  0  0  0  0  0  0  0  0  0  0
    8.6781   -2.5136    0.0000 C   0  0  0  0  0  0  0  0  0  0  0  0
    9.4220   -1.2110    0.0000 C   0  0  0  0  0  0  0  0  0  0  0  0
    7.9342   -3.8161    0.0000 C   0  0  0  0  0  0  0  0  0  0  0  0
    7.3755   -1.7697    0.0000 C   0  0  0  0  0  0  0  0  0  0  0  0
    6.0081   -2.3862    0.0000 C   0  0  0  0  0  0  0  0  0  0  0  0
    7.2117   -0.2787    0.0000 O   0  0  0  0  0  0  0  0  0  0  0  0
    9.4747    3.9410    0.0000 C   0  0  0  0  0  0  0  0  0  0  0  0
    7.9747    3.9340    0.0000 C   0  0  0  0  0  0  0  0  0  0  0  0
    7.2186    5.2295    0.0000 C   0  0  0  0  0  0  0  0  0  0  0  0
    7.2308    2.6314    0.0000 C   0  0  0  0  0  0  0  0  0  0  0  0
    5.7308    2.6244    0.0000 C   0  0  0  0  0  0  0  0  0  0  0  0
    7.9869    1.3359    0.0000 O   0  0  0  0  0  0  0  0  0  0  0  0
   -1.0130    1.2936    0.0000 C   0  0  0  0  0  0  0  0  0  0  0  0
   -1.0200    2.7936    0.0000 C   0  0  0  0  0  0  0  0  0  0  0  0
   -1.0059   -0.2064    0.0000 C   0  0  0  0  0  0  0  0  0  0  0  0
   -2.5130    1.2865    0.0000 C   0  0  0  0  0  0  0  0  0  0  0  0
   -3.2569   -0.0160    0.0000 C   0  0  0  0  0  0  0  0  0  0  0  0
    0.6480   -1.0369    0.0000 H   0  0  0  0  0  0  0  0  0  0  0  0
  1  2  1  0  0  0  0
  1  6  2  0  0  0  0
  2  3  2  0  0  0  0
  3  4  1  0  0  0  0
  4  5  2  0  0  0  0
  5  6  1  0  0  0  0
  5 11  1  0  0  0  0
  6  7  1  0  0  0  0
  7  8  2  0  0  0  0
  8  9  1  0  0  0  0
  9 10  2  0  0  0  0
  9 11  1  0  0  0  0
  1 12  1  0  0  0  0
 13 14  1  0  0  0  0
 14 15  2  0  0  0  0
 14 16  1  0  0  0  0
 16 17  1  0  0  0  0
 17 18  1  0  0  0  0
 17 19  1  0  0  0  0
 17 20  1  0  0  0  0
 20 21  1  0  0  0  0
 20 22  1  0  0  0  0
  2 21  1  0  0  0  0
  3 22  1  0  0  0  0
 23 24  1  0  0  0  0
 24 25  1  0  0  0  0
 24 26  1  0  0  0  0
 26 27  1  0  0  0  0
 26 28  1  0  0  0  0
  4 27  1  0  0  0  0
 29 30  1  0  0  0  0
 29 31  1  0  0  0  0
 29 32  1  0  0  0  0
 32 33  2  0  0  0  0
  8 29  1  0  0  0  0
  7 34  1  0  0  0  0
M  END
> <score_Kier1>
0.517738

$$$$
suggested molecule #728
 MOE2019            2D

 34 36  0  0  0  0  0  0  0  0999 V2000
    3.4992   -1.2833    0.0000 C   0  0  0  0  0  0  0  0  0  1  0  0
    4.9992   -1.2762    0.0000 C   0  0  0  0  0  0  0  0  0  2  0  0
    5.7430    0.0263    0.0000 C   0  0  0  0  0  0  0  0  0  3  0  0
    4.9869    1.3218    0.0000 C   0  0  0  0  0  0  0  0  0  4  0  0
    3.4870    1.3147    0.0000 C   0  0  0  0  0  0  0  0  0  5  0  0
    2.7431    0.0122    0.0000 C   0  0  0  0  0  0  0  0  0  6  0  0
    1.2431    0.0051    0.0000 C   0  0  0  0  0  0  0  0  0  7  0  0
    0.4870    1.3006    0.0000 C   0  0  0  0  0  0  0  0  0  8  0  0
    1.2309    2.6032    0.0000 C   0  0  0  0  0  0  0  0  0  9  0  0
    0.4748    3.8987    0.0000 O   0  0  0  0  0  0  0  0  0 10  0  0
    2.7309    2.6102    0.0000 O   0  0  0  0  0  0  0  0  0 11  0  0
    2.9041   -2.3253    0.0000 H   0  0  0  0  0  0  0  0  0  0  0  0
   11.2902   -5.5013    0.0000 C   0  0  0  0  0  0  0  0  0  0  0  0
    9.9877   -4.7574    0.0000 C   0  0  0  0  0  0  0  0  0  0  0  0
    8.6922   -5.5135    0.0000 O   0  0  0  0  0  0  0  0  0  0  0  0
    9.9806   -3.2575    0.0000 O   0  0  0  0  0  0  0  0  0  0  0  0
    8.6781   -2.5136    0.0000 C   0  0  0  0  0  0  0  0  0  0  0  0
    9.4220   -1.2110    0.0000 C   0  0  0  0  0  0  0  0  0  0  0  0
    7.9342   -3.8161    0.0000 C   0  0  0  0  0  0  0  0  0  0  0  0
    7.3755   -1.7697    0.0000 C   0  0  0  0  0  0  0  0  0  0  0  0
    6.0081   -2.3862    0.0000 C   0  0  0  0  0  0  0  0  0  0  0  0
    7.2117   -0.2787    0.0000 O   0  0  0  0  0  0  0  0  0  0  0  0
    9.4747    3.9410    0.0000 C   0  0  0  0  0  0  0  0  0  0  0  0
    7.9747    3.9340    0.0000 C   0  0  0  0  0  0  0  0  0  0  0  0
    7.2186    5.2295    0.0000 C   0  0  0  0  0  0  0  0  0  0  0  0
    7.2308    2.6314    0.0000 C   0  0  0  0  0  0  0  0  0  0  0  0
    5.7308    2.6244    0.0000 C   0  0  0  0  0  0  0  0  0  0  0  0
    7.9869    1.3359    0.0000 O   0  0  0  0  0  0  0  0  0  0  0  0
   -1.0130    1.2936    0.0000 C   0  0  0  0  0  0  0  0  0  0  0  0
   -1.0200    2.7936    0.0000 C   0  0  0  0  0  0  0  0  0  0  0  0
   -1.0059   -0.2064    0.0000 C   0  0  0  0  0  0  0  0  0  0  0  0
   -2.5130    1.2865    0.0000 C   0  0  0  0  0  0  0  0  0  0  0  0
   -3.2569   -0.0160    0.0000 C   0  0  0  0  0  0  0  0  0  0  0  0
    0.6480   -1.0369    0.0000 H   0  0  0  0  0  0  0  0  0  0  0  0
  1  2  1  0  0  0  0
  1  6  2  0  0  0  0
  2  3  2  0  0  0  0
  3  4  1  0  0  0  0
  4  5  2  0  0  0  0
  5  6  1  0  0  0  0
  5 11  1  0  0  0  0
  6  7  1  0  0  0  0
  7  8  2  0  0  0  0
  8  9  1  0  0  0  0
  9 10  2  0  0  0  0
  9 11  1  0  0  0  0
  1 12  1  0  0  0  0
 13 14  1  0  0  0  0
 14 15  2  0  0  0  0
 14 16  1  0  0  0  0
 16 17  1  0  0  0  0
 17 18  1  0  0  0  0
 17 19  1  0  0  0  0
 17 20  1  0  0  0  0
 20 21  1  0  0  0  0
 20 22  1  0  0  0  0
  2 21  1  0  0  0  0
  3 22  1  0  0  0  0
 23 24  1  0  0  0  0
 24 25  1  0  0  0  0
 24 26  1  0  0  0  0
 26 27  1  0  0  0  0
 26 28  1  0  0  0  0
  4 27  1  0  0  0  0
 29 30  1  0  0  0  0
 29 31  1  0  0  0  0
 29 32  1  0  0  0  0
 32 33  2  0  0  0  0
  8 29  1  0  0  0  0
  7 34  1  0  0  0  0
M  END
> <score_Kier2>
0.516512

$$$$
suggested molecule #729
 MOE2019            2D

 34 36  0  0  0  0  0  0  0  0999 V2000
    3.4992   -1.2833    0.0000 C   0  0  0  0  0  0  0  0  0  1  0  0
    4.9992   -1.2762    0.0000 C   0  0  0  0  0  0  0  0  0  2  0  0
    5.7430    0.0263    0.0000 C   0  0  0  0  0  0  0  0  0  3  0  0
    4.9869    1.3218    0.0000 C   0  0  0  0  0  0  0  0  0  4  0  0
    3.4870    1.3147    0.0000 C   0  0  0  0  0  0  0  0  0  5  0  0
    2.7431    0.0122    0.0000 C   0  0  0  0  0  0  0  0  0  6  0  0
    1.2431    0.0051    0.0000 C   0  0  0  0  0  0  0  0  0  7  0  0
    0.4870    1.3006    0.0000 C   0  0  0  0  0  0  0  0  0  8  0  0
    1.2309    2.6032    0.0000 C   0  0  0  0  0  0  0  0  0  9  0  0
    0.4748    3.8987    0.0000 O   0  0  0  0  0  0  0  0  0 10  0  0
    2.7309    2.6102    0.0000 O   0  0  0  0  0  0  0  0  0 11  0  0
    2.9041   -2.3253    0.0000 H   0  0  0  0  0  0  0  0  0  0  0  0
   11.2902   -5.5013    0.0000 C   0  0  0  0  0  0  0  0  0  0  0  0
    9.9877   -4.7574    0.0000 C   0  0  0  0  0  0  0  0  0  0  0  0
    8.6922   -5.5135    0.0000 O   0  0  0  0  0  0  0  0  0  0  0  0
    9.9806   -3.2575    0.0000 O   0  0  0  0  0  0  0  0  0  0  0  0
    8.6781   -2.5136    0.0000 C   0  0  0  0  0  0  0  0  0  0  0  0
    9.4220   -1.2110    0.0000 C   0  0  0  0  0  0  0  0  0  0  0  0
    7.9342   -3.8161    0.0000 C   0  0  0  0  0  0  0  0  0  0  0  0
    7.3755   -1.7697    0.0000 C   0  0  0  0  0  0  0  0  0  0  0  0
    6.0081   -2.3862    0.0000 C   0  0  0  0  0  0  0  0  0  0  0  0
    7.2117   -0.2787    0.0000 O   0  0  0  0  0  0  0  0  0  0  0  0
    9.4747    3.9410    0.0000 C   0  0  0  0  0  0  0  0  0  0  0  0
    7.9747    3.9340    0.0000 C   0  0  0  0  0  0  0  0  0  0  0  0
    7.2186    5.2295    0.0000 C   0  0  0  0  0  0  0  0  0  0  0  0
    7.2308    2.6314    0.0000 C   0  0  0  0  0  0  0  0  0  0  0  0
    5.7308    2.6244    0.0000 C   0  0  0  0  0  0  0  0  0  0  0  0
    7.9869    1.3359    0.0000 O   0  0  0  0  0  0  0  0  0  0  0  0
   -1.0130    1.2936    0.0000 C   0  0  0  0  0  0  0  0  0  0  0  0
   -1.0200    2.7936    0.0000 C   0  0  0  0  0  0  0  0  0  0  0  0
   -1.0059   -0.2064    0.0000 C   0  0  0  0  0  0  0  0  0  0  0  0
   -2.5130    1.2865    0.0000 C   0  0  0  0  0  0  0  0  0  0  0  0
   -3.2569   -0.0160    0.0000 C   0  0  0  0  0  0  0  0  0  0  0  0
    0.6480   -1.0369    0.0000 H   0  0  0  0  0  0  0  0  0  0  0  0
  1  2  1  0  0  0  0
  1  6  2  0  0  0  0
  2  3  2  0  0  0  0
  3  4  1  0  0  0  0
  4  5  2  0  0  0  0
  5  6  1  0  0  0  0
  5 11  1  0  0  0  0
  6  7  1  0  0  0  0
  7  8  2  0  0  0  0
  8  9  1  0  0  0  0
  9 10  2  0  0  0  0
  9 11  1  0  0  0  0
  1 12  1  0  0  0  0
 13 14  1  0  0  0  0
 14 15  2  0  0  0  0
 14 16  1  0  0  0  0
 16 17  1  0  0  0  0
 17 18  1  0  0  0  0
 17 19  1  0  0  0  0
 17 20  1  0  0  0  0
 20 21  1  0  0  0  0
 20 22  1  0  0  0  0
  2 21  1  0  0  0  0
  3 22  1  0  0  0  0
 23 24  1  0  0  0  0
 24 25  1  0  0  0  0
 24 26  1  0  0  0  0
 26 27  1  0  0  0  0
 26 28  1  0  0  0  0
  4 27  1  0  0  0  0
 29 30  1  0  0  0  0
 29 31  1  0  0  0  0
 29 32  1  0  0  0  0
 32 33  2  0  0  0  0
  8 29  1  0  0  0  0
  7 34  1  0  0  0  0
M  END
> <score_KierA1>
0.517588

$$$$
suggested molecule #730
 MOE2019            2D

 34 36  0  0  0  0  0  0  0  0999 V2000
    3.4992   -1.2833    0.0000 C   0  0  0  0  0  0  0  0  0  1  0  0
    4.9992   -1.2762    0.0000 C   0  0  0  0  0  0  0  0  0  2  0  0
    5.7430    0.0263    0.0000 C   0  0  0  0  0  0  0  0  0  3  0  0
    4.9869    1.3218    0.0000 C   0  0  0  0  0  0  0  0  0  4  0  0
    3.4870    1.3147    0.0000 C   0  0  0  0  0  0  0  0  0  5  0  0
    2.7431    0.0122    0.0000 C   0  0  0  0  0  0  0  0  0  6  0  0
    1.2431    0.0051    0.0000 C   0  0  0  0  0  0  0  0  0  7  0  0
    0.4870    1.3006    0.0000 C   0  0  0  0  0  0  0  0  0  8  0  0
    1.2309    2.6032    0.0000 C   0  0  0  0  0  0  0  0  0  9  0  0
    0.4748    3.8987    0.0000 O   0  0  0  0  0  0  0  0  0 10  0  0
    2.7309    2.6102    0.0000 O   0  0  0  0  0  0  0  0  0 11  0  0
    2.9041   -2.3253    0.0000 H   0  0  0  0  0  0  0  0  0  0  0  0
   11.2902   -5.5013    0.0000 C   0  0  0  0  0  0  0  0  0  0  0  0
    9.9877   -4.7574    0.0000 C   0  0  0  0  0  0  0  0  0  0  0  0
    8.6922   -5.5135    0.0000 O   0  0  0  0  0  0  0  0  0  0  0  0
    9.9806   -3.2575    0.0000 O   0  0  0  0  0  0  0  0  0  0  0  0
    8.6781   -2.5136    0.0000 C   0  0  0  0  0  0  0  0  0  0  0  0
    9.4220   -1.2110    0.0000 C   0  0  0  0  0  0  0  0  0  0  0  0
    7.9342   -3.8161    0.0000 C   0  0  0  0  0  0  0  0  0  0  0  0
    7.3755   -1.7697    0.0000 C   0  0  0  0  0  0  0  0  0  0  0  0
    6.0081   -2.3862    0.0000 C   0  0  0  0  0  0  0  0  0  0  0  0
    7.2117   -0.2787    0.0000 O   0  0  0  0  0  0  0  0  0  0  0  0
    9.4747    3.9410    0.0000 C   0  0  0  0  0  0  0  0  0  0  0  0
    7.9747    3.9340    0.0000 C   0  0  0  0  0  0  0  0  0  0  0  0
    7.2186    5.2295    0.0000 C   0  0  0  0  0  0  0  0  0  0  0  0
    7.2308    2.6314    0.0000 C   0  0  0  0  0  0  0  0  0  0  0  0
    5.7308    2.6244    0.0000 C   0  0  0  0  0  0  0  0  0  0  0  0
    7.9869    1.3359    0.0000 O   0  0  0  0  0  0  0  0  0  0  0  0
   -1.0130    1.2936    0.0000 C   0  0  0  0  0  0  0  0  0  0  0  0
   -1.0200    2.7936    0.0000 C   0  0  0  0  0  0  0  0  0  0  0  0
   -1.0059   -0.2064    0.0000 C   0  0  0  0  0  0  0  0  0  0  0  0
   -2.5130    1.2865    0.0000 C   0  0  0  0  0  0  0  0  0  0  0  0
   -3.2569   -0.0160    0.0000 C   0  0  0  0  0  0  0  0  0  0  0  0
    0.6480   -1.0369    0.0000 H   0  0  0  0  0  0  0  0  0  0  0  0
  1  2  1  0  0  0  0
  1  6  2  0  0  0  0
  2  3  2  0  0  0  0
  3  4  1  0  0  0  0
  4  5  2  0  0  0  0
  5  6  1  0  0  0  0
  5 11  1  0  0  0  0
  6  7  1  0  0  0  0
  7  8  2  0  0  0  0
  8  9  1  0  0  0  0
  9 10  2  0  0  0  0
  9 11  1  0  0  0  0
  1 12  1  0  0  0  0
 13 14  1  0  0  0  0
 14 15  2  0  0  0  0
 14 16  1  0  0  0  0
 16 17  1  0  0  0  0
 17 18  1  0  0  0  0
 17 19  1  0  0  0  0
 17 20  1  0  0  0  0
 20 21  1  0  0  0  0
 20 22  1  0  0  0  0
  2 21  1  0  0  0  0
  3 22  1  0  0  0  0
 23 24  1  0  0  0  0
 24 25  1  0  0  0  0
 24 26  1  0  0  0  0
 26 27  1  0  0  0  0
 26 28  1  0  0  0  0
  4 27  1  0  0  0  0
 29 30  1  0  0  0  0
 29 31  1  0  0  0  0
 29 32  1  0  0  0  0
 32 33  2  0  0  0  0
  8 29  1  0  0  0  0
  7 34  1  0  0  0  0
M  END
> <score_KierA2>
0.516723

$$$$
suggested molecule #731
 MOE2019            2D

 48 50  0  0  0  0  0  0  0  0999 V2000
    3.4992   -1.2833    0.0000 C   0  0  0  0  0  0  0  0  0  1  0  0
    4.9992   -1.2762    0.0000 C   0  0  0  0  0  0  0  0  0  2  0  0
    5.7430    0.0263    0.0000 C   0  0  0  0  0  0  0  0  0  3  0  0
    4.9869    1.3218    0.0000 C   0  0  0  0  0  0  0  0  0  4  0  0
    3.4870    1.3147    0.0000 C   0  0  0  0  0  0  0  0  0  5  0  0
    2.7431    0.0122    0.0000 C   0  0  0  0  0  0  0  0  0  6  0  0
    1.2431    0.0051    0.0000 C   0  0  0  0  0  0  0  0  0  7  0  0
    0.4870    1.3006    0.0000 C   0  0  0  0  0  0  0  0  0  8  0  0
    1.2309    2.6032    0.0000 C   0  0  0  0  0  0  0  0  0  9  0  0
    0.4748    3.8987    0.0000 O   0  0  0  0  0  0  0  0  0 10  0  0
    2.7309    2.6102    0.0000 O   0  0  0  0  0  0  0  0  0 11  0  0
    2.9041   -2.3253    0.0000 H   0  0  0  0  0  0  0  0  0  0  0  0
   11.2902   -5.5013    0.0000 C   0  0  0  0  0  0  0  0  0  0  0  0
    9.9877   -4.7574    0.0000 C   0  0  0  0  0  0  0  0  0  0  0  0
    8.6922   -5.5135    0.0000 O   0  0  0  0  0  0  0  0  0  0  0  0
    9.9806   -3.2575    0.0000 O   0  0  0  0  0  0  0  0  0  0  0  0
    8.6781   -2.5136    0.0000 C   0  0  0  0  0  0  0  0  0  0  0  0
    9.4220   -1.2110    0.0000 C   0  0  0  0  0  0  0  0  0  0  0  0
    7.9342   -3.8161    0.0000 C   0  0  0  0  0  0  0  0  0  0  0  0
    7.3755   -1.7697    0.0000 C   0  0  0  0  0  0  0  0  0  0  0  0
    6.0081   -2.3862    0.0000 C   0  0  0  0  0  0  0  0  0  0  0  0
    7.2117   -0.2787    0.0000 O   0  0  0  0  0  0  0  0  0  0  0  0
    4.9503    9.1159    0.0000 C   0  0  0  0  0  0  0  0  0  0  0  0
    5.7064    7.8204    0.0000 C   0  0  0  0  0  0  0  0  0  0  0  0
    4.9625    6.5179    0.0000 C   0  0  0  0  0  0  0  0  0  0  0  0
    5.7186    5.2224    0.0000 C   0  0  0  0  0  0  0  0  0  0  0  0
    7.2186    5.2295    0.0000 O   0  0  0  0  0  0  0  0  0  0  0  0
    4.9747    3.9198    0.0000 O   0  0  0  0  0  0  0  0  0  0  0  0
    5.7308    2.6244    0.0000 C   0  0  0  0  0  0  0  0  0  0  0  0
    7.7308    2.6338    0.0000 C   0  0  0  0  0  0  0  0  0  0  0  0
    8.4747    3.9363    0.0000 C   0  0  0  0  0  0  0  0  0  0  0  0
    9.7772    3.1924    0.0000 O   0  0  0  0  0  0  0  0  0  0  0  0
    7.1721    4.6802    0.0000 C   0  0  0  0  0  0  0  0  0  0  0  0
    9.2186    5.2389    0.0000 C   0  0  0  0  0  0  0  0  0  0  0  0
    8.4869    1.3383    0.0000 O   0  0  0  0  0  0  0  0  0  0  0  0
    9.9869    1.3453    0.0000 C   0  0  0  0  0  0  0  0  0  0  0  0
   10.7308    2.6479    0.0000 O   0  0  0  0  0  0  0  0  0  0  0  0
   10.7430    0.0498    0.0000 C   0  0  0  0  0  0  0  0  0  0  0  0
   12.2430    0.0569    0.0000 C   0  0  0  0  0  0  0  0  0  0  0  0
   12.9991   -1.2386    0.0000 C   0  0  0  0  0  0  0  0  0  0  0  0
   12.9869    1.3594    0.0000 C   0  0  0  0  0  0  0  0  0  0  0  0
    7.2064    7.8275    0.0000 C   0  0  0  0  0  0  0  0  0  0  0  0
   -1.0130    1.2936    0.0000 C   0  0  0  0  0  0  0  0  0  0  0  0
   -1.0200    2.7936    0.0000 C   0  0  0  0  0  0  0  0  0  0  0  0
   -1.0059   -0.2064    0.0000 C   0  0  0  0  0  0  0  0  0  0  0  0
   -2.5130    1.2865    0.0000 C   0  0  0  0  0  0  0  0  0  0  0  0
   -3.2569   -0.0160    0.0000 C   0  0  0  0  0  0  0  0  0  0  0  0
    0.6480   -1.0369    0.0000 H   0  0  0  0  0  0  0  0  0  0  0  0
  1  2  2  0  0  0  0
  1  6  1  0  0  0  0
  2  3  1  0  0  0  0
  3  4  2  0  0  0  0
  4  5  1  0  0  0  0
  5  6  2  0  0  0  0
  5 11  1  0  0  0  0
  6  7  1  0  0  0  0
  7  8  2  0  0  0  0
  8  9  1  0  0  0  0
  9 10  2  0  0  0  0
  9 11  1  0  0  0  0
  1 12  1  0  0  0  0
 13 14  1  0  0  0  0
 14 15  2  0  0  0  0
 14 16  1  0  0  0  0
 16 17  1  0  0  0  0
 17 18  1  0  0  0  0
 17 19  1  0  0  0  0
 17 20  1  0  0  0  0
 20 21  1  0  0  0  0
 20 22  1  0  0  0  0
  2 21  1  0  0  0  0
  3 22  1  0  0  0  0
 23 24  1  0  0  0  0
 24 25  2  0  0  0  0
 24 42  1  0  0  0  0
 25 26  1  0  0  0  0
 26 27  2  0  0  0  0
 26 28  1  0  0  0  0
 28 29  1  0  0  0  0
 29 30  1  0  0  0  0
 30 31  1  0  0  0  0
 30 35  1  0  0  0  0
 31 32  1  0  0  0  0
 31 33  1  0  0  0  0
 31 34  1  0  0  0  0
 35 36  1  0  0  0  0
 36 37  2  0  0  0  0
 36 38  1  0  0  0  0
 38 39  2  0  0  0  0
 39 40  1  0  0  0  0
 39 41  1  0  0  0  0
  4 29  1  0  0  0  0
 43 44  1  0  0  0  0
 43 45  1  0  0  0  0
 43 46  1  0  0  0  0
 46 47  2  0  0  0  0
  8 43  1  0  0  0  0
  7 48  1  0  0  0  0
M  END
> <score_Kier1>
0.517711

$$$$
suggested molecule #732
 MOE2019            2D

 48 50  0  0  0  0  0  0  0  0999 V2000
    3.4992   -1.2833    0.0000 C   0  0  0  0  0  0  0  0  0  1  0  0
    4.9992   -1.2762    0.0000 C   0  0  0  0  0  0  0  0  0  2  0  0
    5.7430    0.0263    0.0000 C   0  0  0  0  0  0  0  0  0  3  0  0
    4.9869    1.3218    0.0000 C   0  0  0  0  0  0  0  0  0  4  0  0
    3.4870    1.3147    0.0000 C   0  0  0  0  0  0  0  0  0  5  0  0
    2.7431    0.0122    0.0000 C   0  0  0  0  0  0  0  0  0  6  0  0
    1.2431    0.0051    0.0000 C   0  0  0  0  0  0  0  0  0  7  0  0
    0.4870    1.3006    0.0000 C   0  0  0  0  0  0  0  0  0  8  0  0
    1.2309    2.6032    0.0000 C   0  0  0  0  0  0  0  0  0  9  0  0
    0.4748    3.8987    0.0000 O   0  0  0  0  0  0  0  0  0 10  0  0
    2.7309    2.6102    0.0000 O   0  0  0  0  0  0  0  0  0 11  0  0
    2.9041   -2.3253    0.0000 H   0  0  0  0  0  0  0  0  0  0  0  0
   11.2902   -5.5013    0.0000 C   0  0  0  0  0  0  0  0  0  0  0  0
    9.9877   -4.7574    0.0000 C   0  0  0  0  0  0  0  0  0  0  0  0
    8.6922   -5.5135    0.0000 O   0  0  0  0  0  0  0  0  0  0  0  0
    9.9806   -3.2575    0.0000 O   0  0  0  0  0  0  0  0  0  0  0  0
    8.6781   -2.5136    0.0000 C   0  0  0  0  0  0  0  0  0  0  0  0
    9.4220   -1.2110    0.0000 C   0  0  0  0  0  0  0  0  0  0  0  0
    7.9342   -3.8161    0.0000 C   0  0  0  0  0  0  0  0  0  0  0  0
    7.3755   -1.7697    0.0000 C   0  0  0  0  0  0  0  0  0  0  0  0
    6.0081   -2.3862    0.0000 C   0  0  0  0  0  0  0  0  0  0  0  0
    7.2117   -0.2787    0.0000 O   0  0  0  0  0  0  0  0  0  0  0  0
    4.9503    9.1159    0.0000 C   0  0  0  0  0  0  0  0  0  0  0  0
    5.7064    7.8204    0.0000 C   0  0  0  0  0  0  0  0  0  0  0  0
    4.9625    6.5179    0.0000 C   0  0  0  0  0  0  0  0  0  0  0  0
    5.7186    5.2224    0.0000 C   0  0  0  0  0  0  0  0  0  0  0  0
    7.2186    5.2295    0.0000 O   0  0  0  0  0  0  0  0  0  0  0  0
    4.9747    3.9198    0.0000 O   0  0  0  0  0  0  0  0  0  0  0  0
    5.7308    2.6244    0.0000 C   0  0  0  0  0  0  0  0  0  0  0  0
    7.7308    2.6338    0.0000 C   0  0  0  0  0  0  0  0  0  0  0  0
    8.4747    3.9363    0.0000 C   0  0  0  0  0  0  0  0  0  0  0  0
    9.7772    3.1924    0.0000 O   0  0  0  0  0  0  0  0  0  0  0  0
    7.1721    4.6802    0.0000 C   0  0  0  0  0  0  0  0  0  0  0  0
    9.2186    5.2389    0.0000 C   0  0  0  0  0  0  0  0  0  0  0  0
    8.4869    1.3383    0.0000 O   0  0  0  0  0  0  0  0  0  0  0  0
    9.9869    1.3453    0.0000 C   0  0  0  0  0  0  0  0  0  0  0  0
   10.7308    2.6479    0.0000 O   0  0  0  0  0  0  0  0  0  0  0  0
   10.7430    0.0498    0.0000 C   0  0  0  0  0  0  0  0  0  0  0  0
   12.2430    0.0569    0.0000 C   0  0  0  0  0  0  0  0  0  0  0  0
   12.9991   -1.2386    0.0000 C   0  0  0  0  0  0  0  0  0  0  0  0
   12.9869    1.3594    0.0000 C   0  0  0  0  0  0  0  0  0  0  0  0
    7.2064    7.8275    0.0000 C   0  0  0  0  0  0  0  0  0  0  0  0
   -1.0130    1.2936    0.0000 C   0  0  0  0  0  0  0  0  0  0  0  0
   -1.0200    2.7936    0.0000 C   0  0  0  0  0  0  0  0  0  0  0  0
   -1.0059   -0.2064    0.0000 C   0  0  0  0  0  0  0  0  0  0  0  0
   -2.5130    1.2865    0.0000 C   0  0  0  0  0  0  0  0  0  0  0  0
   -3.2569   -0.0160    0.0000 C   0  0  0  0  0  0  0  0  0  0  0  0
    0.6480   -1.0369    0.0000 H   0  0  0  0  0  0  0  0  0  0  0  0
  1  2  2  0  0  0  0
  1  6  1  0  0  0  0
  2  3  1  0  0  0  0
  3  4  2  0  0  0  0
  4  5  1  0  0  0  0
  5  6  2  0  0  0  0
  5 11  1  0  0  0  0
  6  7  1  0  0  0  0
  7  8  2  0  0  0  0
  8  9  1  0  0  0  0
  9 10  2  0  0  0  0
  9 11  1  0  0  0  0
  1 12  1  0  0  0  0
 13 14  1  0  0  0  0
 14 15  2  0  0  0  0
 14 16  1  0  0  0  0
 16 17  1  0  0  0  0
 17 18  1  0  0  0  0
 17 19  1  0  0  0  0
 17 20  1  0  0  0  0
 20 21  1  0  0  0  0
 20 22  1  0  0  0  0
  2 21  1  0  0  0  0
  3 22  1  0  0  0  0
 23 24  1  0  0  0  0
 24 25  2  0  0  0  0
 24 42  1  0  0  0  0
 25 26  1  0  0  0  0
 26 27  2  0  0  0  0
 26 28  1  0  0  0  0
 28 29  1  0  0  0  0
 29 30  1  0  0  0  0
 30 31  1  0  0  0  0
 30 35  1  0  0  0  0
 31 32  1  0  0  0  0
 31 33  1  0  0  0  0
 31 34  1  0  0  0  0
 35 36  1  0  0  0  0
 36 37  2  0  0  0  0
 36 38  1  0  0  0  0
 38 39  2  0  0  0  0
 39 40  1  0  0  0  0
 39 41  1  0  0  0  0
  4 29  1  0  0  0  0
 43 44  1  0  0  0  0
 43 45  1  0  0  0  0
 43 46  1  0  0  0  0
 46 47  2  0  0  0  0
  8 43  1  0  0  0  0
  7 48  1  0  0  0  0
M  END
> <score_Kier2>
0.516483

$$$$
suggested molecule #733
 MOE2019            2D

 48 50  0  0  0  0  0  0  0  0999 V2000
    3.4992   -1.2833    0.0000 C   0  0  0  0  0  0  0  0  0  1  0  0
    4.9992   -1.2762    0.0000 C   0  0  0  0  0  0  0  0  0  2  0  0
    5.7430    0.0263    0.0000 C   0  0  0  0  0  0  0  0  0  3  0  0
    4.9869    1.3218    0.0000 C   0  0  0  0  0  0  0  0  0  4  0  0
    3.4870    1.3147    0.0000 C   0  0  0  0  0  0  0  0  0  5  0  0
    2.7431    0.0122    0.0000 C   0  0  0  0  0  0  0  0  0  6  0  0
    1.2431    0.0051    0.0000 C   0  0  0  0  0  0  0  0  0  7  0  0
    0.4870    1.3006    0.0000 C   0  0  0  0  0  0  0  0  0  8  0  0
    1.2309    2.6032    0.0000 C   0  0  0  0  0  0  0  0  0  9  0  0
    0.4748    3.8987    0.0000 O   0  0  0  0  0  0  0  0  0 10  0  0
    2.7309    2.6102    0.0000 O   0  0  0  0  0  0  0  0  0 11  0  0
    2.9041   -2.3253    0.0000 H   0  0  0  0  0  0  0  0  0  0  0  0
   10.1903   -5.1046    0.0000 C   0  0  0  0  0  0  0  0  0  0  0  0
    8.6903   -5.1116    0.0000 C   0  0  0  0  0  0  0  0  0  0  0  0
    7.9464   -6.4142    0.0000 O   0  0  0  0  0  0  0  0  0  0  0  0
    7.9342   -3.8161    0.0000 O   0  0  0  0  0  0  0  0  0  0  0  0
    8.6781   -2.5136    0.0000 C   0  0  0  0  0  0  0  0  0  0  0  0
    9.9806   -3.2575    0.0000 C   0  0  0  0  0  0  0  0  0  0  0  0
    9.4220   -1.2110    0.0000 C   0  0  0  0  0  0  0  0  0  0  0  0
    7.3755   -1.7697    0.0000 C   0  0  0  0  0  0  0  0  0  0  0  0
    6.0081   -2.3862    0.0000 C   0  0  0  0  0  0  0  0  0  0  0  0
    7.2117   -0.2787    0.0000 O   0  0  0  0  0  0  0  0  0  0  0  0
   -1.2895    6.9215    0.0000 C   0  0  0  0  0  0  0  0  0  0  0  0
    0.2105    6.9286    0.0000 C   0  0  0  0  0  0  0  0  0  0  0  0
    0.9544    8.2311    0.0000 C   0  0  0  0  0  0  0  0  0  0  0  0
    0.9666    5.6331    0.0000 C   0  0  0  0  0  0  0  0  0  0  0  0
    2.4666    5.6401    0.0000 C   0  0  0  0  0  0  0  0  0  0  0  0
    3.2105    6.9427    0.0000 O   0  0  0  0  0  0  0  0  0  0  0  0
    3.2227    4.3446    0.0000 O   0  0  0  0  0  0  0  0  0  0  0  0
    4.7227    4.3517    0.0000 C   0  0  0  0  0  0  0  0  0  0  0  0
    5.7308    2.6244    0.0000 C   0  0  0  0  0  0  0  0  0  0  0  0
    4.1640    6.3981    0.0000 O   0  0  0  0  0  0  0  0  0  0  0  0
    5.4666    5.6542    0.0000 C   0  0  0  0  0  0  0  0  0  0  0  0
    6.7691    4.9104    0.0000 C   0  0  0  0  0  0  0  0  0  0  0  0
    6.2104    6.9568    0.0000 C   0  0  0  0  0  0  0  0  0  0  0  0
    7.2308    2.6314    0.0000 O   0  0  0  0  0  0  0  0  0  0  0  0
    7.9747    3.9340    0.0000 C   0  0  0  0  0  0  0  0  0  0  0  0
    7.2186    5.2295    0.0000 O   0  0  0  0  0  0  0  0  0  0  0  0
    9.4747    3.9410    0.0000 C   0  0  0  0  0  0  0  0  0  0  0  0
   10.2186    5.2436    0.0000 C   0  0  0  0  0  0  0  0  0  0  0  0
   11.7185    5.2506    0.0000 C   0  0  0  0  0  0  0  0  0  0  0  0
    9.4625    6.5391    0.0000 C   0  0  0  0  0  0  0  0  0  0  0  0
   -1.0130    1.2936    0.0000 C   0  0  0  0  0  0  0  0  0  0  0  0
   -1.0059   -0.2064    0.0000 C   0  0  0  0  0  0  0  0  0  0  0  0
   -1.0200    2.7936    0.0000 C   0  0  0  0  0  0  0  0  0  0  0  0
   -2.5130    1.2865    0.0000 C   0  0  0  0  0  0  0  0  0  0  0  0
   -3.2569   -0.0160    0.0000 C   0  0  0  0  0  0  0  0  0  0  0  0
    0.6480   -1.0369    0.0000 H   0  0  0  0  0  0  0  0  0  0  0  0
  1  2  2  0  0  0  0
  1  6  1  0  0  0  0
  2  3  1  0  0  0  0
  3  4  2  0  0  0  0
  4  5  1  0  0  0  0
  5  6  2  0  0  0  0
  5 11  1  0  0  0  0
  6  7  1  0  0  0  0
  7  8  2  0  0  0  0
  8  9  1  0  0  0  0
  9 10  2  0  0  0  0
  9 11  1  0  0  0  0
  1 12  1  0  0  0  0
 13 14  1  0  0  0  0
 14 15  2  0  0  0  0
 14 16  1  0  0  0  0
 16 17  1  0  0  0  0
 17 18  1  0  0  0  0
 17 19  1  0  0  0  0
 17 20  1  0  0  0  0
 20 21  1  0  0  0  0
 20 22  1  0  0  0  0
  2 21  1  0  0  0  0
  3 22  1  0  0  0  0
 23 24  1  0  0  0  0
 24 25  1  0  0  0  0
 24 26  1  0  0  0  0
 26 27  1  0  0  0  0
 27 28  2  0  0  0  0
 27 29  1  0  0  0  0
 29 30  1  0  0  0  0
 30 31  1  0  0  0  0
 30 33  1  0  0  0  0
 31 36  1  0  0  0  0
 32 33  1  0  0  0  0
 33 34  1  0  0  0  0
 33 35  1  0  0  0  0
 36 37  1  0  0  0  0
 37 38  2  0  0  0  0
 37 39  1  0  0  0  0
 39 40  2  0  0  0  0
 40 41  1  0  0  0  0
 40 42  1  0  0  0  0
  4 31  1  0  0  0  0
 43 44  1  0  0  0  0
 43 45  1  0  0  0  0
 43 46  1  0  0  0  0
 46 47  2  0  0  0  0
  8 43  1  0  0  0  0
  7 48  1  0  0  0  0
M  END
> <score_Kier1>
0.517711

$$$$
suggested molecule #734
 MOE2019            2D

 48 50  0  0  0  0  0  0  0  0999 V2000
    3.4992   -1.2833    0.0000 C   0  0  0  0  0  0  0  0  0  1  0  0
    4.9992   -1.2762    0.0000 C   0  0  0  0  0  0  0  0  0  2  0  0
    5.7430    0.0263    0.0000 C   0  0  0  0  0  0  0  0  0  3  0  0
    4.9869    1.3218    0.0000 C   0  0  0  0  0  0  0  0  0  4  0  0
    3.4870    1.3147    0.0000 C   0  0  0  0  0  0  0  0  0  5  0  0
    2.7431    0.0122    0.0000 C   0  0  0  0  0  0  0  0  0  6  0  0
    1.2431    0.0051    0.0000 C   0  0  0  0  0  0  0  0  0  7  0  0
    0.4870    1.3006    0.0000 C   0  0  0  0  0  0  0  0  0  8  0  0
    1.2309    2.6032    0.0000 C   0  0  0  0  0  0  0  0  0  9  0  0
    0.4748    3.8987    0.0000 O   0  0  0  0  0  0  0  0  0 10  0  0
    2.7309    2.6102    0.0000 O   0  0  0  0  0  0  0  0  0 11  0  0
    2.9041   -2.3253    0.0000 H   0  0  0  0  0  0  0  0  0  0  0  0
   10.1903   -5.1046    0.0000 C   0  0  0  0  0  0  0  0  0  0  0  0
    8.6903   -5.1116    0.0000 C   0  0  0  0  0  0  0  0  0  0  0  0
    7.9464   -6.4142    0.0000 O   0  0  0  0  0  0  0  0  0  0  0  0
    7.9342   -3.8161    0.0000 O   0  0  0  0  0  0  0  0  0  0  0  0
    8.6781   -2.5136    0.0000 C   0  0  0  0  0  0  0  0  0  0  0  0
    9.9806   -3.2575    0.0000 C   0  0  0  0  0  0  0  0  0  0  0  0
    9.4220   -1.2110    0.0000 C   0  0  0  0  0  0  0  0  0  0  0  0
    7.3755   -1.7697    0.0000 C   0  0  0  0  0  0  0  0  0  0  0  0
    6.0081   -2.3862    0.0000 C   0  0  0  0  0  0  0  0  0  0  0  0
    7.2117   -0.2787    0.0000 O   0  0  0  0  0  0  0  0  0  0  0  0
   -1.2895    6.9215    0.0000 C   0  0  0  0  0  0  0  0  0  0  0  0
    0.2105    6.9286    0.0000 C   0  0  0  0  0  0  0  0  0  0  0  0
    0.9544    8.2311    0.0000 C   0  0  0  0  0  0  0  0  0  0  0  0
    0.9666    5.6331    0.0000 C   0  0  0  0  0  0  0  0  0  0  0  0
    2.4666    5.6401    0.0000 C   0  0  0  0  0  0  0  0  0  0  0  0
    3.2105    6.9427    0.0000 O   0  0  0  0  0  0  0  0  0  0  0  0
    3.2227    4.3446    0.0000 O   0  0  0  0  0  0  0  0  0  0  0  0
    4.7227    4.3517    0.0000 C   0  0  0  0  0  0  0  0  0  0  0  0
    5.7308    2.6244    0.0000 C   0  0  0  0  0  0  0  0  0  0  0  0
    4.1640    6.3981    0.0000 O   0  0  0  0  0  0  0  0  0  0  0  0
    5.4666    5.6542    0.0000 C   0  0  0  0  0  0  0  0  0  0  0  0
    6.7691    4.9104    0.0000 C   0  0  0  0  0  0  0  0  0  0  0  0
    6.2104    6.9568    0.0000 C   0  0  0  0  0  0  0  0  0  0  0  0
    7.2308    2.6314    0.0000 O   0  0  0  0  0  0  0  0  0  0  0  0
    7.9747    3.9340    0.0000 C   0  0  0  0  0  0  0  0  0  0  0  0
    7.2186    5.2295    0.0000 O   0  0  0  0  0  0  0  0  0  0  0  0
    9.4747    3.9410    0.0000 C   0  0  0  0  0  0  0  0  0  0  0  0
   10.2186    5.2436    0.0000 C   0  0  0  0  0  0  0  0  0  0  0  0
   11.7185    5.2506    0.0000 C   0  0  0  0  0  0  0  0  0  0  0  0
    9.4625    6.5391    0.0000 C   0  0  0  0  0  0  0  0  0  0  0  0
   -1.0130    1.2936    0.0000 C   0  0  0  0  0  0  0  0  0  0  0  0
   -1.0059   -0.2064    0.0000 C   0  0  0  0  0  0  0  0  0  0  0  0
   -1.0200    2.7936    0.0000 C   0  0  0  0  0  0  0  0  0  0  0  0
   -2.5130    1.2865    0.0000 C   0  0  0  0  0  0  0  0  0  0  0  0
   -3.2569   -0.0160    0.0000 C   0  0  0  0  0  0  0  0  0  0  0  0
    0.6480   -1.0369    0.0000 H   0  0  0  0  0  0  0  0  0  0  0  0
  1  2  2  0  0  0  0
  1  6  1  0  0  0  0
  2  3  1  0  0  0  0
  3  4  2  0  0  0  0
  4  5  1  0  0  0  0
  5  6  2  0  0  0  0
  5 11  1  0  0  0  0
  6  7  1  0  0  0  0
  7  8  2  0  0  0  0
  8  9  1  0  0  0  0
  9 10  2  0  0  0  0
  9 11  1  0  0  0  0
  1 12  1  0  0  0  0
 13 14  1  0  0  0  0
 14 15  2  0  0  0  0
 14 16  1  0  0  0  0
 16 17  1  0  0  0  0
 17 18  1  0  0  0  0
 17 19  1  0  0  0  0
 17 20  1  0  0  0  0
 20 21  1  0  0  0  0
 20 22  1  0  0  0  0
  2 21  1  0  0  0  0
  3 22  1  0  0  0  0
 23 24  1  0  0  0  0
 24 25  1  0  0  0  0
 24 26  1  0  0  0  0
 26 27  1  0  0  0  0
 27 28  2  0  0  0  0
 27 29  1  0  0  0  0
 29 30  1  0  0  0  0
 30 31  1  0  0  0  0
 30 33  1  0  0  0  0
 31 36  1  0  0  0  0
 32 33  1  0  0  0  0
 33 34  1  0  0  0  0
 33 35  1  0  0  0  0
 36 37  1  0  0  0  0
 37 38  2  0  0  0  0
 37 39  1  0  0  0  0
 39 40  2  0  0  0  0
 40 41  1  0  0  0  0
 40 42  1  0  0  0  0
  4 31  1  0  0  0  0
 43 44  1  0  0  0  0
 43 45  1  0  0  0  0
 43 46  1  0  0  0  0
 46 47  2  0  0  0  0
  8 43  1  0  0  0  0
  7 48  1  0  0  0  0
M  END
> <score_Kier2>
0.516483

$$$$
suggested molecule #735
 MOE2019            2D

 48 50  0  0  0  0  0  0  0  0999 V2000
    3.4992   -1.2833    0.0000 C   0  0  0  0  0  0  0  0  0  1  0  0
    4.9992   -1.2762    0.0000 C   0  0  0  0  0  0  0  0  0  2  0  0
    5.7430    0.0263    0.0000 C   0  0  0  0  0  0  0  0  0  3  0  0
    4.9869    1.3218    0.0000 C   0  0  0  0  0  0  0  0  0  4  0  0
    3.4870    1.3147    0.0000 C   0  0  0  0  0  0  0  0  0  5  0  0
    2.7431    0.0122    0.0000 C   0  0  0  0  0  0  0  0  0  6  0  0
    1.2431    0.0051    0.0000 C   0  0  0  0  0  0  0  0  0  7  0  0
    0.4870    1.3006    0.0000 C   0  0  0  0  0  0  0  0  0  8  0  0
    1.2309    2.6032    0.0000 C   0  0  0  0  0  0  0  0  0  9  0  0
    0.4748    3.8987    0.0000 O   0  0  0  0  0  0  0  0  0 10  0  0
    2.7309    2.6102    0.0000 O   0  0  0  0  0  0  0  0  0 11  0  0
    2.9041   -2.3253    0.0000 H   0  0  0  0  0  0  0  0  0  0  0  0
    7.9464   -6.4142    0.0000 C   0  0  0  0  0  0  0  0  0  0  0  0
    8.6903   -5.1116    0.0000 C   0  0  0  0  0  0  0  0  0  0  0  0
   10.1903   -5.1046    0.0000 O   0  0  0  0  0  0  0  0  0  0  0  0
    7.9342   -3.8161    0.0000 O   0  0  0  0  0  0  0  0  0  0  0  0
    8.6781   -2.5136    0.0000 C   0  0  0  0  0  0  0  0  0  0  0  0
    9.9806   -3.2575    0.0000 C   0  0  0  0  0  0  0  0  0  0  0  0
    9.4220   -1.2110    0.0000 C   0  0  0  0  0  0  0  0  0  0  0  0
    7.3755   -1.7697    0.0000 C   0  0  0  0  0  0  0  0  0  0  0  0
    6.0081   -2.3862    0.0000 C   0  0  0  0  0  0  0  0  0  0  0  0
    7.2117   -0.2787    0.0000 O   0  0  0  0  0  0  0  0  0  0  0  0
    7.2064    7.8275    0.0000 C   0  0  0  0  0  0  0  0  0  0  0  0
    5.7064    7.8204    0.0000 C   0  0  0  0  0  0  0  0  0  0  0  0
    4.9503    9.1159    0.0000 C   0  0  0  0  0  0  0  0  0  0  0  0
    4.9625    6.5179    0.0000 C   0  0  0  0  0  0  0  0  0  0  0  0
    5.7186    5.2224    0.0000 C   0  0  0  0  0  0  0  0  0  0  0  0
    7.2186    5.2295    0.0000 O   0  0  0  0  0  0  0  0  0  0  0  0
    4.9747    3.9198    0.0000 O   0  0  0  0  0  0  0  0  0  0  0  0
    5.7308    2.6244    0.0000 C   0  0  0  0  0  0  0  0  0  0  0  0
    7.7308    2.6338    0.0000 C   0  0  0  0  0  0  0  0  0  0  0  0
    8.4869    1.3383    0.0000 O   0  0  0  0  0  0  0  0  0  0  0  0
    8.4747    3.9363    0.0000 C   0  0  0  0  0  0  0  0  0  0  0  0
    7.1721    4.6802    0.0000 C   0  0  0  0  0  0  0  0  0  0  0  0
    9.2186    5.2389    0.0000 C   0  0  0  0  0  0  0  0  0  0  0  0
    9.7772    3.1924    0.0000 O   0  0  0  0  0  0  0  0  0  0  0  0
   11.0727    3.9485    0.0000 C   0  0  0  0  0  0  0  0  0  0  0  0
   12.3753    3.2046    0.0000 O   0  0  0  0  0  0  0  0  0  0  0  0
   11.0657    5.4485    0.0000 C   0  0  0  0  0  0  0  0  0  0  0  0
   12.3612    6.2046    0.0000 C   0  0  0  0  0  0  0  0  0  0  0  0
   12.3541    7.7046    0.0000 C   0  0  0  0  0  0  0  0  0  0  0  0
   13.6637    5.4607    0.0000 C   0  0  0  0  0  0  0  0  0  0  0  0
   -1.0130    1.2936    0.0000 C   0  0  0  0  0  0  0  0  0  0  0  0
   -1.0059   -0.2064    0.0000 C   0  0  0  0  0  0  0  0  0  0  0  0
   -1.0200    2.7936    0.0000 C   0  0  0  0  0  0  0  0  0  0  0  0
   -2.5130    1.2865    0.0000 C   0  0  0  0  0  0  0  0  0  0  0  0
   -3.2569   -0.0160    0.0000 C   0  0  0  0  0  0  0  0  0  0  0  0
    0.6480   -1.0369    0.0000 H   0  0  0  0  0  0  0  0  0  0  0  0
  1  2  1  0  0  0  0
  1  6  2  0  0  0  0
  2  3  2  0  0  0  0
  3  4  1  0  0  0  0
  4  5  2  0  0  0  0
  5  6  1  0  0  0  0
  5 11  1  0  0  0  0
  6  7  1  0  0  0  0
  7  8  2  0  0  0  0
  8  9  1  0  0  0  0
  9 10  2  0  0  0  0
  9 11  1  0  0  0  0
  1 12  1  0  0  0  0
 13 14  1  0  0  0  0
 14 15  2  0  0  0  0
 14 16  1  0  0  0  0
 16 17  1  0  0  0  0
 17 18  1  0  0  0  0
 17 19  1  0  0  0  0
 17 20  1  0  0  0  0
 20 21  1  0  0  0  0
 20 22  1  0  0  0  0
  2 21  1  0  0  0  0
  3 22  1  0  0  0  0
 23 24  1  0  0  0  0
 24 25  1  0  0  0  0
 24 26  1  0  0  0  0
 26 27  1  0  0  0  0
 27 28  2  0  0  0  0
 27 29  1  0  0  0  0
 29 30  1  0  0  0  0
 30 31  1  0  0  0  0
 31 32  1  0  0  0  0
 31 33  1  0  0  0  0
 33 34  1  0  0  0  0
 33 35  1  0  0  0  0
 33 36  1  0  0  0  0
 36 37  1  0  0  0  0
 37 38  2  0  0  0  0
 37 39  1  0  0  0  0
 39 40  1  0  0  0  0
 40 41  1  0  0  0  0
 40 42  1  0  0  0  0
  4 30  1  0  0  0  0
 43 44  1  0  0  0  0
 43 45  1  0  0  0  0
 43 46  1  0  0  0  0
 46 47  2  0  0  0  0
  8 43  1  0  0  0  0
  7 48  1  0  0  0  0
M  END
> <score_Kier1>
0.517711

$$$$
suggested molecule #736
 MOE2019            2D

 48 50  0  0  0  0  0  0  0  0999 V2000
    3.4992   -1.2833    0.0000 C   0  0  0  0  0  0  0  0  0  1  0  0
    4.9992   -1.2762    0.0000 C   0  0  0  0  0  0  0  0  0  2  0  0
    5.7430    0.0263    0.0000 C   0  0  0  0  0  0  0  0  0  3  0  0
    4.9869    1.3218    0.0000 C   0  0  0  0  0  0  0  0  0  4  0  0
    3.4870    1.3147    0.0000 C   0  0  0  0  0  0  0  0  0  5  0  0
    2.7431    0.0122    0.0000 C   0  0  0  0  0  0  0  0  0  6  0  0
    1.2431    0.0051    0.0000 C   0  0  0  0  0  0  0  0  0  7  0  0
    0.4870    1.3006    0.0000 C   0  0  0  0  0  0  0  0  0  8  0  0
    1.2309    2.6032    0.0000 C   0  0  0  0  0  0  0  0  0  9  0  0
    0.4748    3.8987    0.0000 O   0  0  0  0  0  0  0  0  0 10  0  0
    2.7309    2.6102    0.0000 O   0  0  0  0  0  0  0  0  0 11  0  0
    2.9041   -2.3253    0.0000 H   0  0  0  0  0  0  0  0  0  0  0  0
    7.9464   -6.4142    0.0000 C   0  0  0  0  0  0  0  0  0  0  0  0
    8.6903   -5.1116    0.0000 C   0  0  0  0  0  0  0  0  0  0  0  0
   10.1903   -5.1046    0.0000 O   0  0  0  0  0  0  0  0  0  0  0  0
    7.9342   -3.8161    0.0000 O   0  0  0  0  0  0  0  0  0  0  0  0
    8.6781   -2.5136    0.0000 C   0  0  0  0  0  0  0  0  0  0  0  0
    9.9806   -3.2575    0.0000 C   0  0  0  0  0  0  0  0  0  0  0  0
    9.4220   -1.2110    0.0000 C   0  0  0  0  0  0  0  0  0  0  0  0
    7.3755   -1.7697    0.0000 C   0  0  0  0  0  0  0  0  0  0  0  0
    6.0081   -2.3862    0.0000 C   0  0  0  0  0  0  0  0  0  0  0  0
    7.2117   -0.2787    0.0000 O   0  0  0  0  0  0  0  0  0  0  0  0
    7.2064    7.8275    0.0000 C   0  0  0  0  0  0  0  0  0  0  0  0
    5.7064    7.8204    0.0000 C   0  0  0  0  0  0  0  0  0  0  0  0
    4.9503    9.1159    0.0000 C   0  0  0  0  0  0  0  0  0  0  0  0
    4.9625    6.5179    0.0000 C   0  0  0  0  0  0  0  0  0  0  0  0
    5.7186    5.2224    0.0000 C   0  0  0  0  0  0  0  0  0  0  0  0
    7.2186    5.2295    0.0000 O   0  0  0  0  0  0  0  0  0  0  0  0
    4.9747    3.9198    0.0000 O   0  0  0  0  0  0  0  0  0  0  0  0
    5.7308    2.6244    0.0000 C   0  0  0  0  0  0  0  0  0  0  0  0
    7.7308    2.6338    0.0000 C   0  0  0  0  0  0  0  0  0  0  0  0
    8.4869    1.3383    0.0000 O   0  0  0  0  0  0  0  0  0  0  0  0
    8.4747    3.9363    0.0000 C   0  0  0  0  0  0  0  0  0  0  0  0
    7.1721    4.6802    0.0000 C   0  0  0  0  0  0  0  0  0  0  0  0
    9.2186    5.2389    0.0000 C   0  0  0  0  0  0  0  0  0  0  0  0
    9.7772    3.1924    0.0000 O   0  0  0  0  0  0  0  0  0  0  0  0
   11.0727    3.9485    0.0000 C   0  0  0  0  0  0  0  0  0  0  0  0
   12.3753    3.2046    0.0000 O   0  0  0  0  0  0  0  0  0  0  0  0
   11.0657    5.4485    0.0000 C   0  0  0  0  0  0  0  0  0  0  0  0
   12.3612    6.2046    0.0000 C   0  0  0  0  0  0  0  0  0  0  0  0
   12.3541    7.7046    0.0000 C   0  0  0  0  0  0  0  0  0  0  0  0
   13.6637    5.4607    0.0000 C   0  0  0  0  0  0  0  0  0  0  0  0
   -1.0130    1.2936    0.0000 C   0  0  0  0  0  0  0  0  0  0  0  0
   -1.0059   -0.2064    0.0000 C   0  0  0  0  0  0  0  0  0  0  0  0
   -1.0200    2.7936    0.0000 C   0  0  0  0  0  0  0  0  0  0  0  0
   -2.5130    1.2865    0.0000 C   0  0  0  0  0  0  0  0  0  0  0  0
   -3.2569   -0.0160    0.0000 C   0  0  0  0  0  0  0  0  0  0  0  0
    0.6480   -1.0369    0.0000 H   0  0  0  0  0  0  0  0  0  0  0  0
  1  2  1  0  0  0  0
  1  6  2  0  0  0  0
  2  3  2  0  0  0  0
  3  4  1  0  0  0  0
  4  5  2  0  0  0  0
  5  6  1  0  0  0  0
  5 11  1  0  0  0  0
  6  7  1  0  0  0  0
  7  8  2  0  0  0  0
  8  9  1  0  0  0  0
  9 10  2  0  0  0  0
  9 11  1  0  0  0  0
  1 12  1  0  0  0  0
 13 14  1  0  0  0  0
 14 15  2  0  0  0  0
 14 16  1  0  0  0  0
 16 17  1  0  0  0  0
 17 18  1  0  0  0  0
 17 19  1  0  0  0  0
 17 20  1  0  0  0  0
 20 21  1  0  0  0  0
 20 22  1  0  0  0  0
  2 21  1  0  0  0  0
  3 22  1  0  0  0  0
 23 24  1  0  0  0  0
 24 25  1  0  0  0  0
 24 26  1  0  0  0  0
 26 27  1  0  0  0  0
 27 28  2  0  0  0  0
 27 29  1  0  0  0  0
 29 30  1  0  0  0  0
 30 31  1  0  0  0  0
 31 32  1  0  0  0  0
 31 33  1  0  0  0  0
 33 34  1  0  0  0  0
 33 35  1  0  0  0  0
 33 36  1  0  0  0  0
 36 37  1  0  0  0  0
 37 38  2  0  0  0  0
 37 39  1  0  0  0  0
 39 40  1  0  0  0  0
 40 41  1  0  0  0  0
 40 42  1  0  0  0  0
  4 30  1  0  0  0  0
 43 44  1  0  0  0  0
 43 45  1  0  0  0  0
 43 46  1  0  0  0  0
 46 47  2  0  0  0  0
  8 43  1  0  0  0  0
  7 48  1  0  0  0  0
M  END
> <score_Kier2>
0.516483

$$$$
suggested molecule #737
 MOE2019            2D

 34 36  0  0  0  0  0  0  0  0999 V2000
    3.4992   -1.2833    0.0000 C   0  0  0  0  0  0  0  0  0  1  0  0
    4.9992   -1.2762    0.0000 C   0  0  0  0  0  0  0  0  0  2  0  0
    5.7430    0.0263    0.0000 C   0  0  0  0  0  0  0  0  0  3  0  0
    4.9869    1.3218    0.0000 C   0  0  0  0  0  0  0  0  0  4  0  0
    3.4870    1.3147    0.0000 C   0  0  0  0  0  0  0  0  0  5  0  0
    2.7431    0.0122    0.0000 C   0  0  0  0  0  0  0  0  0  6  0  0
    1.2431    0.0051    0.0000 C   0  0  0  0  0  0  0  0  0  7  0  0
    0.4870    1.3006    0.0000 C   0  0  0  0  0  0  0  0  0  8  0  0
    1.2309    2.6032    0.0000 C   0  0  0  0  0  0  0  0  0  9  0  0
    0.4748    3.8987    0.0000 O   0  0  0  0  0  0  0  0  0 10  0  0
    2.7309    2.6102    0.0000 O   0  0  0  0  0  0  0  0  0 11  0  0
    2.9041   -2.3253    0.0000 H   0  0  0  0  0  0  0  0  0  0  0  0
   11.2902   -5.5013    0.0000 C   0  0  0  0  0  0  0  0  0  0  0  0
    9.9877   -4.7574    0.0000 C   0  0  0  0  0  0  0  0  0  0  0  0
    8.6922   -5.5135    0.0000 O   0  0  0  0  0  0  0  0  0  0  0  0
    9.9806   -3.2575    0.0000 O   0  0  0  0  0  0  0  0  0  0  0  0
    8.6781   -2.5136    0.0000 C   0  0  0  0  0  0  0  0  0  0  0  0
    7.9342   -3.8161    0.0000 C   0  0  0  0  0  0  0  0  0  0  0  0
    9.4220   -1.2110    0.0000 C   0  0  0  0  0  0  0  0  0  0  0  0
    7.3755   -1.7697    0.0000 C   0  0  0  0  0  0  0  0  0  0  0  0
    6.0081   -2.3862    0.0000 C   0  0  0  0  0  0  0  0  0  0  0  0
    7.2117   -0.2787    0.0000 O   0  0  0  0  0  0  0  0  0  0  0  0
    5.7308    2.6244    0.0000 C   0  0  0  0  0  0  0  0  0  0  0  0
    7.2308    2.6314    0.0000 C   0  0  0  0  0  0  0  0  0  0  0  0
    7.9747    3.9340    0.0000 C   0  0  0  0  0  0  0  0  0  0  0  0
    6.6721    4.6778    0.0000 O   0  0  0  0  0  0  0  0  0  0  0  0
    9.2772    3.1901    0.0000 C   0  0  0  0  0  0  0  0  0  0  0  0
    8.7186    5.2365    0.0000 C   0  0  0  0  0  0  0  0  0  0  0  0
   -1.0130    1.2936    0.0000 C   0  0  0  0  0  0  0  0  0  0  0  0
   -1.0200    2.7936    0.0000 C   0  0  0  0  0  0  0  0  0  0  0  0
   -1.0059   -0.2064    0.0000 C   0  0  0  0  0  0  0  0  0  0  0  0
   -2.5130    1.2865    0.0000 C   0  0  0  0  0  0  0  0  0  0  0  0
   -3.2569   -0.0160    0.0000 C   0  0  0  0  0  0  0  0  0  0  0  0
    0.6480   -1.0369    0.0000 H   0  0  0  0  0  0  0  0  0  0  0  0
  1  2  1  0  0  0  0
  1  6  2  0  0  0  0
  2  3  2  0  0  0  0
  3  4  1  0  0  0  0
  4  5  2  0  0  0  0
  5  6  1  0  0  0  0
  5 11  1  0  0  0  0
  6  7  1  0  0  0  0
  7  8  2  0  0  0  0
  8  9  1  0  0  0  0
  9 10  2  0  0  0  0
  9 11  1  0  0  0  0
  1 12  1  0  0  0  0
 13 14  1  0  0  0  0
 14 15  2  0  0  0  0
 14 16  1  0  0  0  0
 16 17  1  0  0  0  0
 17 18  1  0  0  0  0
 17 19  1  0  0  0  0
 17 20  1  0  0  0  0
 20 21  1  0  0  0  0
 20 22  1  0  0  0  0
  2 21  1  0  0  0  0
  3 22  1  0  0  0  0
 23 24  2  0  0  0  0
 24 25  1  0  0  0  0
 25 26  1  0  0  0  0
 25 27  1  0  0  0  0
 25 28  1  0  0  0  0
  4 23  1  0  0  0  0
 29 30  1  0  0  0  0
 29 31  1  0  0  0  0
 29 32  1  0  0  0  0
 32 33  2  0  0  0  0
  8 29  1  0  0  0  0
  7 34  1  0  0  0  0
M  END
> <score_Kier1>
0.517724

$$$$
suggested molecule #738
 MOE2019            2D

 34 36  0  0  0  0  0  0  0  0999 V2000
    3.4992   -1.2833    0.0000 C   0  0  0  0  0  0  0  0  0  1  0  0
    4.9992   -1.2762    0.0000 C   0  0  0  0  0  0  0  0  0  2  0  0
    5.7430    0.0263    0.0000 C   0  0  0  0  0  0  0  0  0  3  0  0
    4.9869    1.3218    0.0000 C   0  0  0  0  0  0  0  0  0  4  0  0
    3.4870    1.3147    0.0000 C   0  0  0  0  0  0  0  0  0  5  0  0
    2.7431    0.0122    0.0000 C   0  0  0  0  0  0  0  0  0  6  0  0
    1.2431    0.0051    0.0000 C   0  0  0  0  0  0  0  0  0  7  0  0
    0.4870    1.3006    0.0000 C   0  0  0  0  0  0  0  0  0  8  0  0
    1.2309    2.6032    0.0000 C   0  0  0  0  0  0  0  0  0  9  0  0
    0.4748    3.8987    0.0000 O   0  0  0  0  0  0  0  0  0 10  0  0
    2.7309    2.6102    0.0000 O   0  0  0  0  0  0  0  0  0 11  0  0
    2.9041   -2.3253    0.0000 H   0  0  0  0  0  0  0  0  0  0  0  0
   11.2902   -5.5013    0.0000 C   0  0  0  0  0  0  0  0  0  0  0  0
    9.9877   -4.7574    0.0000 C   0  0  0  0  0  0  0  0  0  0  0  0
    8.6922   -5.5135    0.0000 O   0  0  0  0  0  0  0  0  0  0  0  0
    9.9806   -3.2575    0.0000 O   0  0  0  0  0  0  0  0  0  0  0  0
    8.6781   -2.5136    0.0000 C   0  0  0  0  0  0  0  0  0  0  0  0
    7.9342   -3.8161    0.0000 C   0  0  0  0  0  0  0  0  0  0  0  0
    9.4220   -1.2110    0.0000 C   0  0  0  0  0  0  0  0  0  0  0  0
    7.3755   -1.7697    0.0000 C   0  0  0  0  0  0  0  0  0  0  0  0
    6.0081   -2.3862    0.0000 C   0  0  0  0  0  0  0  0  0  0  0  0
    7.2117   -0.2787    0.0000 O   0  0  0  0  0  0  0  0  0  0  0  0
    5.7308    2.6244    0.0000 C   0  0  0  0  0  0  0  0  0  0  0  0
    7.2308    2.6314    0.0000 C   0  0  0  0  0  0  0  0  0  0  0  0
    7.9747    3.9340    0.0000 C   0  0  0  0  0  0  0  0  0  0  0  0
    6.6721    4.6778    0.0000 O   0  0  0  0  0  0  0  0  0  0  0  0
    9.2772    3.1901    0.0000 C   0  0  0  0  0  0  0  0  0  0  0  0
    8.7186    5.2365    0.0000 C   0  0  0  0  0  0  0  0  0  0  0  0
   -1.0130    1.2936    0.0000 C   0  0  0  0  0  0  0  0  0  0  0  0
   -1.0200    2.7936    0.0000 C   0  0  0  0  0  0  0  0  0  0  0  0
   -1.0059   -0.2064    0.0000 C   0  0  0  0  0  0  0  0  0  0  0  0
   -2.5130    1.2865    0.0000 C   0  0  0  0  0  0  0  0  0  0  0  0
   -3.2569   -0.0160    0.0000 C   0  0  0  0  0  0  0  0  0  0  0  0
    0.6480   -1.0369    0.0000 H   0  0  0  0  0  0  0  0  0  0  0  0
  1  2  1  0  0  0  0
  1  6  2  0  0  0  0
  2  3  2  0  0  0  0
  3  4  1  0  0  0  0
  4  5  2  0  0  0  0
  5  6  1  0  0  0  0
  5 11  1  0  0  0  0
  6  7  1  0  0  0  0
  7  8  2  0  0  0  0
  8  9  1  0  0  0  0
  9 10  2  0  0  0  0
  9 11  1  0  0  0  0
  1 12  1  0  0  0  0
 13 14  1  0  0  0  0
 14 15  2  0  0  0  0
 14 16  1  0  0  0  0
 16 17  1  0  0  0  0
 17 18  1  0  0  0  0
 17 19  1  0  0  0  0
 17 20  1  0  0  0  0
 20 21  1  0  0  0  0
 20 22  1  0  0  0  0
  2 21  1  0  0  0  0
  3 22  1  0  0  0  0
 23 24  2  0  0  0  0
 24 25  1  0  0  0  0
 25 26  1  0  0  0  0
 25 27  1  0  0  0  0
 25 28  1  0  0  0  0
  4 23  1  0  0  0  0
 29 30  1  0  0  0  0
 29 31  1  0  0  0  0
 29 32  1  0  0  0  0
 32 33  2  0  0  0  0
  8 29  1  0  0  0  0
  7 34  1  0  0  0  0
M  END
> <score_Kier2>
0.5165

$$$$
suggested molecule #739
 MOE2019            2D

 34 36  0  0  0  0  0  0  0  0999 V2000
    3.4992   -1.2833    0.0000 C   0  0  0  0  0  0  0  0  0  1  0  0
    4.9992   -1.2762    0.0000 C   0  0  0  0  0  0  0  0  0  2  0  0
    5.7430    0.0263    0.0000 C   0  0  0  0  0  0  0  0  0  3  0  0
    4.9869    1.3218    0.0000 C   0  0  0  0  0  0  0  0  0  4  0  0
    3.4870    1.3147    0.0000 C   0  0  0  0  0  0  0  0  0  5  0  0
    2.7431    0.0122    0.0000 C   0  0  0  0  0  0  0  0  0  6  0  0
    1.2431    0.0051    0.0000 C   0  0  0  0  0  0  0  0  0  7  0  0
    0.4870    1.3006    0.0000 C   0  0  0  0  0  0  0  0  0  8  0  0
    1.2309    2.6032    0.0000 C   0  0  0  0  0  0  0  0  0  9  0  0
    0.4748    3.8987    0.0000 O   0  0  0  0  0  0  0  0  0 10  0  0
    2.7309    2.6102    0.0000 O   0  0  0  0  0  0  0  0  0 11  0  0
    2.9041   -2.3253    0.0000 H   0  0  0  0  0  0  0  0  0  0  0  0
   11.2902   -5.5013    0.0000 C   0  0  0  0  0  0  0  0  0  0  0  0
    9.9877   -4.7574    0.0000 C   0  0  0  0  0  0  0  0  0  0  0  0
    8.6922   -5.5135    0.0000 O   0  0  0  0  0  0  0  0  0  0  0  0
    9.9806   -3.2575    0.0000 O   0  0  0  0  0  0  0  0  0  0  0  0
    8.6781   -2.5136    0.0000 C   0  0  0  0  0  0  0  0  0  0  0  0
    7.9342   -3.8161    0.0000 C   0  0  0  0  0  0  0  0  0  0  0  0
    9.4220   -1.2110    0.0000 C   0  0  0  0  0  0  0  0  0  0  0  0
    7.3755   -1.7697    0.0000 C   0  0  0  0  0  0  0  0  0  0  0  0
    6.0081   -2.3862    0.0000 C   0  0  0  0  0  0  0  0  0  0  0  0
    7.2117   -0.2787    0.0000 O   0  0  0  0  0  0  0  0  0  0  0  0
    5.7308    2.6244    0.0000 C   0  0  0  0  0  0  0  0  0  0  0  0
    7.2308    2.6314    0.0000 C   0  0  0  0  0  0  0  0  0  0  0  0
    7.9747    3.9340    0.0000 C   0  0  0  0  0  0  0  0  0  0  0  0
    6.6721    4.6778    0.0000 O   0  0  0  0  0  0  0  0  0  0  0  0
    9.2772    3.1901    0.0000 C   0  0  0  0  0  0  0  0  0  0  0  0
    8.7186    5.2365    0.0000 C   0  0  0  0  0  0  0  0  0  0  0  0
   -1.0130    1.2936    0.0000 C   0  0  0  0  0  0  0  0  0  0  0  0
   -1.0200    2.7936    0.0000 C   0  0  0  0  0  0  0  0  0  0  0  0
   -1.0059   -0.2064    0.0000 C   0  0  0  0  0  0  0  0  0  0  0  0
   -2.5130    1.2865    0.0000 C   0  0  0  0  0  0  0  0  0  0  0  0
   -3.2569   -0.0160    0.0000 C   0  0  0  0  0  0  0  0  0  0  0  0
    0.6480   -1.0369    0.0000 H   0  0  0  0  0  0  0  0  0  0  0  0
  1  2  1  0  0  0  0
  1  6  2  0  0  0  0
  2  3  2  0  0  0  0
  3  4  1  0  0  0  0
  4  5  2  0  0  0  0
  5  6  1  0  0  0  0
  5 11  1  0  0  0  0
  6  7  1  0  0  0  0
  7  8  2  0  0  0  0
  8  9  1  0  0  0  0
  9 10  2  0  0  0  0
  9 11  1  0  0  0  0
  1 12  1  0  0  0  0
 13 14  1  0  0  0  0
 14 15  2  0  0  0  0
 14 16  1  0  0  0  0
 16 17  1  0  0  0  0
 17 18  1  0  0  0  0
 17 19  1  0  0  0  0
 17 20  1  0  0  0  0
 20 21  1  0  0  0  0
 20 22  1  0  0  0  0
  2 21  1  0  0  0  0
  3 22  1  0  0  0  0
 23 24  2  0  0  0  0
 24 25  1  0  0  0  0
 25 26  1  0  0  0  0
 25 27  1  0  0  0  0
 25 28  1  0  0  0  0
  4 23  1  0  0  0  0
 29 30  1  0  0  0  0
 29 31  1  0  0  0  0
 29 32  1  0  0  0  0
 32 33  2  0  0  0  0
  8 29  1  0  0  0  0
  7 34  1  0  0  0  0
M  END
> <score_KierA2>
0.516717

$$$$
